
---------- Begin Simulation Statistics ----------
final_tick                               1940776636000                       # Number of ticks from beginning of simulation (restored from checkpoints and never reset)
host_inst_rate                                 104764                       # Simulator instruction rate (inst/s)
host_mem_usage                                4564440                       # Number of bytes of host memory used
host_op_rate                                   198311                       # Simulator op (including micro ops) rate (op/s)
host_seconds                                 19567.85                       # Real time elapsed on the host
host_tick_rate                               37297200                       # Simulator tick rate (ticks/s)
sim_freq                                 1000000000000                       # Frequency of simulated ticks
sim_insts                                  2050000007                       # Number of instructions simulated
sim_ops                                    3880515037                       # Number of ops (including micro ops) simulated
sim_seconds                                  0.729826                       # Number of seconds simulated
sim_ticks                                729826087250                       # Number of ticks simulated
system.cpu.committedInsts                           0                       # Number of instructions committed
system.cpu.committedOps                             0                       # Number of ops (including micro ops) committed
system.cpu.dtb.rdAccesses                           0                       # TLB accesses on read requests
system.cpu.dtb.rdMisses                             0                       # TLB misses on read requests
system.cpu.dtb.wrAccesses                           0                       # TLB accesses on write requests
system.cpu.dtb.wrMisses                             0                       # TLB misses on write requests
system.cpu.idle_fraction                            0                       # Percentage of idle cycles
system.cpu.itb.rdAccesses                           0                       # TLB accesses on read requests
system.cpu.itb.rdMisses                             0                       # TLB misses on read requests
system.cpu.itb.wrAccesses                           0                       # TLB accesses on write requests
system.cpu.itb.wrMisses                             0                       # TLB misses on write requests
system.cpu.not_idle_fraction                        1                       # Percentage of non-idle cycles
system.cpu.numCycles                                0                       # number of cpu cycles simulated
system.cpu.numWorkItemsCompleted                    0                       # number of work items this cpu completed
system.cpu.numWorkItemsStarted                      0                       # number of work items this cpu started
system.cpu.num_busy_cycles                          0                       # Number of busy cycles
system.cpu.num_conditional_control_insts            0                       # number of instructions that are conditional controls
system.cpu.num_fp_alu_accesses                      0                       # Number of float alu accesses
system.cpu.num_fp_insts                             0                       # number of float instructions
system.cpu.num_fp_register_reads                    0                       # number of times the floating registers were read
system.cpu.num_fp_register_writes                   0                       # number of times the floating registers were written
system.cpu.num_func_calls                           0                       # number of times a function call or return occured
system.cpu.num_idle_cycles                          0                       # Number of idle cycles
system.cpu.num_int_alu_accesses                     0                       # Number of integer alu accesses
system.cpu.num_int_insts                            0                       # number of integer instructions
system.cpu.num_int_register_reads                   0                       # number of times the integer registers were read
system.cpu.num_int_register_writes                  0                       # number of times the integer registers were written
system.cpu.num_load_insts                           0                       # Number of load instructions
system.cpu.num_mem_refs                             0                       # number of memory refs
system.cpu.num_store_insts                          0                       # Number of store instructions
system.cpu.num_vec_alu_accesses                     0                       # Number of vector alu accesses
system.cpu.num_vec_insts                            0                       # number of vector instructions
system.cpu.num_vec_register_reads                   0                       # number of times the vector registers were read
system.cpu.num_vec_register_writes                  0                       # number of times the vector registers were written
system.cpu.op_class::No_OpClass                     0                       # Class of executed instruction
system.cpu.op_class::IntAlu                         0                       # Class of executed instruction
system.cpu.op_class::IntMult                        0                       # Class of executed instruction
system.cpu.op_class::IntDiv                         0                       # Class of executed instruction
system.cpu.op_class::FloatAdd                       0                       # Class of executed instruction
system.cpu.op_class::FloatCmp                       0                       # Class of executed instruction
system.cpu.op_class::FloatCvt                       0                       # Class of executed instruction
system.cpu.op_class::FloatMult                      0                       # Class of executed instruction
system.cpu.op_class::FloatMultAcc                   0                       # Class of executed instruction
system.cpu.op_class::FloatDiv                       0                       # Class of executed instruction
system.cpu.op_class::FloatMisc                      0                       # Class of executed instruction
system.cpu.op_class::FloatSqrt                      0                       # Class of executed instruction
system.cpu.op_class::SimdAdd                        0                       # Class of executed instruction
system.cpu.op_class::SimdAddAcc                     0                       # Class of executed instruction
system.cpu.op_class::SimdAlu                        0                       # Class of executed instruction
system.cpu.op_class::SimdCmp                        0                       # Class of executed instruction
system.cpu.op_class::SimdCvt                        0                       # Class of executed instruction
system.cpu.op_class::SimdMisc                       0                       # Class of executed instruction
system.cpu.op_class::SimdMult                       0                       # Class of executed instruction
system.cpu.op_class::SimdMultAcc                    0                       # Class of executed instruction
system.cpu.op_class::SimdShift                      0                       # Class of executed instruction
system.cpu.op_class::SimdShiftAcc                   0                       # Class of executed instruction
system.cpu.op_class::SimdDiv                        0                       # Class of executed instruction
system.cpu.op_class::SimdSqrt                       0                       # Class of executed instruction
system.cpu.op_class::SimdFloatAdd                   0                       # Class of executed instruction
system.cpu.op_class::SimdFloatAlu                   0                       # Class of executed instruction
system.cpu.op_class::SimdFloatCmp                   0                       # Class of executed instruction
system.cpu.op_class::SimdFloatCvt                   0                       # Class of executed instruction
system.cpu.op_class::SimdFloatDiv                   0                       # Class of executed instruction
system.cpu.op_class::SimdFloatMisc                  0                       # Class of executed instruction
system.cpu.op_class::SimdFloatMult                  0                       # Class of executed instruction
system.cpu.op_class::SimdFloatMultAcc               0                       # Class of executed instruction
system.cpu.op_class::SimdFloatSqrt                  0                       # Class of executed instruction
system.cpu.op_class::SimdReduceAdd                  0                       # Class of executed instruction
system.cpu.op_class::SimdReduceAlu                  0                       # Class of executed instruction
system.cpu.op_class::SimdReduceCmp                  0                       # Class of executed instruction
system.cpu.op_class::SimdFloatReduceAdd             0                       # Class of executed instruction
system.cpu.op_class::SimdFloatReduceCmp             0                       # Class of executed instruction
system.cpu.op_class::SimdAes                        0                       # Class of executed instruction
system.cpu.op_class::SimdAesMix                     0                       # Class of executed instruction
system.cpu.op_class::SimdSha1Hash                   0                       # Class of executed instruction
system.cpu.op_class::SimdSha1Hash2                  0                       # Class of executed instruction
system.cpu.op_class::SimdSha256Hash                 0                       # Class of executed instruction
system.cpu.op_class::SimdSha256Hash2                0                       # Class of executed instruction
system.cpu.op_class::SimdShaSigma2                  0                       # Class of executed instruction
system.cpu.op_class::SimdShaSigma3                  0                       # Class of executed instruction
system.cpu.op_class::SimdPredAlu                    0                       # Class of executed instruction
system.cpu.op_class::MemRead                        0                       # Class of executed instruction
system.cpu.op_class::MemWrite                       0                       # Class of executed instruction
system.cpu.op_class::FloatMemRead                   0                       # Class of executed instruction
system.cpu.op_class::FloatMemWrite                  0                       # Class of executed instruction
system.cpu.op_class::IprAccess                      0                       # Class of executed instruction
system.cpu.op_class::InstPrefetch                   0                       # Class of executed instruction
system.cpu.op_class::total                          0                       # Class of executed instruction
system.cpu.workload.numSyscalls                    12                       # Number of system calls
system.membus.snoop_filter.hit_multi_requests            0                       # Number of requests hitting in the snoop filter with multiple (>1) holders of the requested data.
system.membus.snoop_filter.hit_multi_snoops            0                       # Number of snoops hitting in the snoop filter with multiple (>1) holders of the requested data.
system.membus.snoop_filter.hit_single_requests       358387                       # Number of requests hitting in the snoop filter with a single holder of the requested data.
system.membus.snoop_filter.hit_single_snoops            0                       # Number of snoops hitting in the snoop filter with a single holder of the requested data.
system.membus.snoop_filter.tot_requests        716763                       # Total number of requests made to the snoop filter.
system.membus.snoop_filter.tot_snoops               0                       # Total number of snoops made to the snoop filter.
system.switch_cpus.committedInsts                   0                       # Number of instructions committed
system.switch_cpus.committedOps                     0                       # Number of ops (including micro ops) committed
system.switch_cpus.dtb.rdAccesses                   0                       # TLB accesses on read requests
system.switch_cpus.dtb.rdMisses                     0                       # TLB misses on read requests
system.switch_cpus.dtb.wrAccesses                   0                       # TLB accesses on write requests
system.switch_cpus.dtb.wrMisses                     0                       # TLB misses on write requests
system.switch_cpus.idle_fraction                    0                       # Percentage of idle cycles
system.switch_cpus.itb.rdAccesses                   0                       # TLB accesses on read requests
system.switch_cpus.itb.rdMisses                     0                       # TLB misses on read requests
system.switch_cpus.itb.wrAccesses                   0                       # TLB accesses on write requests
system.switch_cpus.itb.wrMisses                     0                       # TLB misses on write requests
system.switch_cpus.not_idle_fraction                1                       # Percentage of non-idle cycles
system.switch_cpus.numCycles                        0                       # number of cpu cycles simulated
system.switch_cpus.numWorkItemsCompleted            0                       # number of work items this cpu completed
system.switch_cpus.numWorkItemsStarted              0                       # number of work items this cpu started
system.switch_cpus.num_busy_cycles                  0                       # Number of busy cycles
system.switch_cpus.num_conditional_control_insts            0                       # number of instructions that are conditional controls
system.switch_cpus.num_fp_alu_accesses              0                       # Number of float alu accesses
system.switch_cpus.num_fp_insts                     0                       # number of float instructions
system.switch_cpus.num_fp_register_reads            0                       # number of times the floating registers were read
system.switch_cpus.num_fp_register_writes            0                       # number of times the floating registers were written
system.switch_cpus.num_func_calls                   0                       # number of times a function call or return occured
system.switch_cpus.num_idle_cycles                  0                       # Number of idle cycles
system.switch_cpus.num_int_alu_accesses             0                       # Number of integer alu accesses
system.switch_cpus.num_int_insts                    0                       # number of integer instructions
system.switch_cpus.num_int_register_reads            0                       # number of times the integer registers were read
system.switch_cpus.num_int_register_writes            0                       # number of times the integer registers were written
system.switch_cpus.num_load_insts                   0                       # Number of load instructions
system.switch_cpus.num_mem_refs                     0                       # number of memory refs
system.switch_cpus.num_store_insts                  0                       # Number of store instructions
system.switch_cpus.num_vec_alu_accesses             0                       # Number of vector alu accesses
system.switch_cpus.num_vec_insts                    0                       # number of vector instructions
system.switch_cpus.num_vec_register_reads            0                       # number of times the vector registers were read
system.switch_cpus.num_vec_register_writes            0                       # number of times the vector registers were written
system.switch_cpus.op_class::No_OpClass             0                       # Class of executed instruction
system.switch_cpus.op_class::IntAlu                 0                       # Class of executed instruction
system.switch_cpus.op_class::IntMult                0                       # Class of executed instruction
system.switch_cpus.op_class::IntDiv                 0                       # Class of executed instruction
system.switch_cpus.op_class::FloatAdd               0                       # Class of executed instruction
system.switch_cpus.op_class::FloatCmp               0                       # Class of executed instruction
system.switch_cpus.op_class::FloatCvt               0                       # Class of executed instruction
system.switch_cpus.op_class::FloatMult              0                       # Class of executed instruction
system.switch_cpus.op_class::FloatMultAcc            0                       # Class of executed instruction
system.switch_cpus.op_class::FloatDiv               0                       # Class of executed instruction
system.switch_cpus.op_class::FloatMisc              0                       # Class of executed instruction
system.switch_cpus.op_class::FloatSqrt              0                       # Class of executed instruction
system.switch_cpus.op_class::SimdAdd                0                       # Class of executed instruction
system.switch_cpus.op_class::SimdAddAcc             0                       # Class of executed instruction
system.switch_cpus.op_class::SimdAlu                0                       # Class of executed instruction
system.switch_cpus.op_class::SimdCmp                0                       # Class of executed instruction
system.switch_cpus.op_class::SimdCvt                0                       # Class of executed instruction
system.switch_cpus.op_class::SimdMisc               0                       # Class of executed instruction
system.switch_cpus.op_class::SimdMult               0                       # Class of executed instruction
system.switch_cpus.op_class::SimdMultAcc            0                       # Class of executed instruction
system.switch_cpus.op_class::SimdShift              0                       # Class of executed instruction
system.switch_cpus.op_class::SimdShiftAcc            0                       # Class of executed instruction
system.switch_cpus.op_class::SimdDiv                0                       # Class of executed instruction
system.switch_cpus.op_class::SimdSqrt               0                       # Class of executed instruction
system.switch_cpus.op_class::SimdFloatAdd            0                       # Class of executed instruction
system.switch_cpus.op_class::SimdFloatAlu            0                       # Class of executed instruction
system.switch_cpus.op_class::SimdFloatCmp            0                       # Class of executed instruction
system.switch_cpus.op_class::SimdFloatCvt            0                       # Class of executed instruction
system.switch_cpus.op_class::SimdFloatDiv            0                       # Class of executed instruction
system.switch_cpus.op_class::SimdFloatMisc            0                       # Class of executed instruction
system.switch_cpus.op_class::SimdFloatMult            0                       # Class of executed instruction
system.switch_cpus.op_class::SimdFloatMultAcc            0                       # Class of executed instruction
system.switch_cpus.op_class::SimdFloatSqrt            0                       # Class of executed instruction
system.switch_cpus.op_class::SimdReduceAdd            0                       # Class of executed instruction
system.switch_cpus.op_class::SimdReduceAlu            0                       # Class of executed instruction
system.switch_cpus.op_class::SimdReduceCmp            0                       # Class of executed instruction
system.switch_cpus.op_class::SimdFloatReduceAdd            0                       # Class of executed instruction
system.switch_cpus.op_class::SimdFloatReduceCmp            0                       # Class of executed instruction
system.switch_cpus.op_class::SimdAes                0                       # Class of executed instruction
system.switch_cpus.op_class::SimdAesMix             0                       # Class of executed instruction
system.switch_cpus.op_class::SimdSha1Hash            0                       # Class of executed instruction
system.switch_cpus.op_class::SimdSha1Hash2            0                       # Class of executed instruction
system.switch_cpus.op_class::SimdSha256Hash            0                       # Class of executed instruction
system.switch_cpus.op_class::SimdSha256Hash2            0                       # Class of executed instruction
system.switch_cpus.op_class::SimdShaSigma2            0                       # Class of executed instruction
system.switch_cpus.op_class::SimdShaSigma3            0                       # Class of executed instruction
system.switch_cpus.op_class::SimdPredAlu            0                       # Class of executed instruction
system.switch_cpus.op_class::MemRead                0                       # Class of executed instruction
system.switch_cpus.op_class::MemWrite               0                       # Class of executed instruction
system.switch_cpus.op_class::FloatMemRead            0                       # Class of executed instruction
system.switch_cpus.op_class::FloatMemWrite            0                       # Class of executed instruction
system.switch_cpus.op_class::IprAccess              0                       # Class of executed instruction
system.switch_cpus.op_class::InstPrefetch            0                       # Class of executed instruction
system.switch_cpus.op_class::total                  0                       # Class of executed instruction
system.switch_cpus_1.branchPred.BTBCorrect            0                       # Number of correct BTB predictions (this stat may not work properly.
system.switch_cpus_1.branchPred.BTBHitPct          nan                       # BTB Hit Percentage
system.switch_cpus_1.branchPred.BTBHits             0                       # Number of BTB hits
system.switch_cpus_1.branchPred.BTBLookups            0                       # Number of BTB lookups
system.switch_cpus_1.branchPred.RASInCorrect        13043                       # Number of incorrect RAS predictions.
system.switch_cpus_1.branchPred.condIncorrect     81906085                       # Number of conditional branches incorrect
system.switch_cpus_1.branchPred.condPredicted    619274588                       # Number of conditional branches predicted
system.switch_cpus_1.branchPred.indirectHits     90237840                       # Number of indirect target hits.
system.switch_cpus_1.branchPred.indirectLookups    391372633                       # Number of indirect predictor lookups.
system.switch_cpus_1.branchPred.indirectMisses    301134793                       # Number of indirect misses.
system.switch_cpus_1.branchPred.lookups     721778789                       # Number of BP lookups
system.switch_cpus_1.branchPred.usedRAS      32520138                       # Number of times the RAS was used to get a target.
system.switch_cpus_1.branchPredindirectMispredicted     63278927                       # Number of mispredicted indirect branches.
system.switch_cpus_1.cc_regfile_reads      1500046726                       # number of cc regfile reads
system.switch_cpus_1.cc_regfile_writes     1020771811                       # number of cc regfile writes
system.switch_cpus_1.commit.amos                    0                       # Number of atomic instructions committed
system.switch_cpus_1.commit.branchMispredicts     81906094                       # The number of times a branch was mispredicted
system.switch_cpus_1.commit.branches        229908759                       # Number of branches committed
system.switch_cpus_1.commit.bw_lim_events    118172359                       # number cycles where commit BW limit reached
system.switch_cpus_1.commit.commitNonSpecStalls           48                       # The number of times commit has been forced to stall to communicate backwards
system.switch_cpus_1.commit.commitSquashedInsts   2266713937                       # The number of squashed insts skipped by commit
system.switch_cpus_1.commit.committedInsts   1000000004                       # Number of instructions committed
system.switch_cpus_1.commit.committedOps   1892299055                       # Number of ops (including micro ops) committed
system.switch_cpus_1.commit.committed_per_cycle::samples   1096821400                       # Number of insts commited each cycle
system.switch_cpus_1.commit.committed_per_cycle::mean     1.725257                       # Number of insts commited each cycle
system.switch_cpus_1.commit.committed_per_cycle::stdev     2.667954                       # Number of insts commited each cycle
system.switch_cpus_1.commit.committed_per_cycle::underflows            0      0.00%      0.00% # Number of insts commited each cycle
system.switch_cpus_1.commit.committed_per_cycle::0    611316256     55.74%     55.74% # Number of insts commited each cycle
system.switch_cpus_1.commit.committed_per_cycle::1    143645789     13.10%     68.83% # Number of insts commited each cycle
system.switch_cpus_1.commit.committed_per_cycle::2     59637156      5.44%     74.27% # Number of insts commited each cycle
system.switch_cpus_1.commit.committed_per_cycle::3     70749341      6.45%     80.72% # Number of insts commited each cycle
system.switch_cpus_1.commit.committed_per_cycle::4     37359071      3.41%     84.13% # Number of insts commited each cycle
system.switch_cpus_1.commit.committed_per_cycle::5     25785681      2.35%     86.48% # Number of insts commited each cycle
system.switch_cpus_1.commit.committed_per_cycle::6     17702859      1.61%     88.09% # Number of insts commited each cycle
system.switch_cpus_1.commit.committed_per_cycle::7     12452888      1.14%     89.23% # Number of insts commited each cycle
system.switch_cpus_1.commit.committed_per_cycle::8    118172359     10.77%    100.00% # Number of insts commited each cycle
system.switch_cpus_1.commit.committed_per_cycle::overflows            0      0.00%    100.00% # Number of insts commited each cycle
system.switch_cpus_1.commit.committed_per_cycle::min_value            0                       # Number of insts commited each cycle
system.switch_cpus_1.commit.committed_per_cycle::max_value            8                       # Number of insts commited each cycle
system.switch_cpus_1.commit.committed_per_cycle::total   1096821400                       # Number of insts commited each cycle
system.switch_cpus_1.commit.fp_insts             5665                       # Number of committed floating point instructions.
system.switch_cpus_1.commit.function_calls      9729214                       # Number of function calls committed.
system.switch_cpus_1.commit.int_insts      1885841317                       # Number of committed integer instructions.
system.switch_cpus_1.commit.loads           241042934                       # Number of loads committed
system.switch_cpus_1.commit.membars                 0                       # Number of memory barriers committed
system.switch_cpus_1.commit.op_class_0::No_OpClass      6152409      0.33%      0.33% # Class of committed instruction
system.switch_cpus_1.commit.op_class_0::IntAlu   1543783870     81.58%     81.91% # Class of committed instruction
system.switch_cpus_1.commit.op_class_0::IntMult       177059      0.01%     81.92% # Class of committed instruction
system.switch_cpus_1.commit.op_class_0::IntDiv      4800256      0.25%     82.17% # Class of committed instruction
system.switch_cpus_1.commit.op_class_0::FloatAdd          245      0.00%     82.17% # Class of committed instruction
system.switch_cpus_1.commit.op_class_0::FloatCmp            0      0.00%     82.17% # Class of committed instruction
system.switch_cpus_1.commit.op_class_0::FloatCvt            0      0.00%     82.17% # Class of committed instruction
system.switch_cpus_1.commit.op_class_0::FloatMult            0      0.00%     82.17% # Class of committed instruction
system.switch_cpus_1.commit.op_class_0::FloatMultAcc            0      0.00%     82.17% # Class of committed instruction
system.switch_cpus_1.commit.op_class_0::FloatDiv            0      0.00%     82.17% # Class of committed instruction
system.switch_cpus_1.commit.op_class_0::FloatMisc            0      0.00%     82.17% # Class of committed instruction
system.switch_cpus_1.commit.op_class_0::FloatSqrt            0      0.00%     82.17% # Class of committed instruction
system.switch_cpus_1.commit.op_class_0::SimdAdd            0      0.00%     82.17% # Class of committed instruction
system.switch_cpus_1.commit.op_class_0::SimdAddAcc            0      0.00%     82.17% # Class of committed instruction
system.switch_cpus_1.commit.op_class_0::SimdAlu          536      0.00%     82.17% # Class of committed instruction
system.switch_cpus_1.commit.op_class_0::SimdCmp            0      0.00%     82.17% # Class of committed instruction
system.switch_cpus_1.commit.op_class_0::SimdCvt          994      0.00%     82.17% # Class of committed instruction
system.switch_cpus_1.commit.op_class_0::SimdMisc         2591      0.00%     82.17% # Class of committed instruction
system.switch_cpus_1.commit.op_class_0::SimdMult            0      0.00%     82.17% # Class of committed instruction
system.switch_cpus_1.commit.op_class_0::SimdMultAcc            0      0.00%     82.17% # Class of committed instruction
system.switch_cpus_1.commit.op_class_0::SimdShift            0      0.00%     82.17% # Class of committed instruction
system.switch_cpus_1.commit.op_class_0::SimdShiftAcc            0      0.00%     82.17% # Class of committed instruction
system.switch_cpus_1.commit.op_class_0::SimdDiv            0      0.00%     82.17% # Class of committed instruction
system.switch_cpus_1.commit.op_class_0::SimdSqrt            0      0.00%     82.17% # Class of committed instruction
system.switch_cpus_1.commit.op_class_0::SimdFloatAdd            0      0.00%     82.17% # Class of committed instruction
system.switch_cpus_1.commit.op_class_0::SimdFloatAlu            0      0.00%     82.17% # Class of committed instruction
system.switch_cpus_1.commit.op_class_0::SimdFloatCmp            0      0.00%     82.17% # Class of committed instruction
system.switch_cpus_1.commit.op_class_0::SimdFloatCvt           10      0.00%     82.17% # Class of committed instruction
system.switch_cpus_1.commit.op_class_0::SimdFloatDiv            1      0.00%     82.17% # Class of committed instruction
system.switch_cpus_1.commit.op_class_0::SimdFloatMisc            0      0.00%     82.17% # Class of committed instruction
system.switch_cpus_1.commit.op_class_0::SimdFloatMult            1      0.00%     82.17% # Class of committed instruction
system.switch_cpus_1.commit.op_class_0::SimdFloatMultAcc            0      0.00%     82.17% # Class of committed instruction
system.switch_cpus_1.commit.op_class_0::SimdFloatSqrt            0      0.00%     82.17% # Class of committed instruction
system.switch_cpus_1.commit.op_class_0::SimdReduceAdd            0      0.00%     82.17% # Class of committed instruction
system.switch_cpus_1.commit.op_class_0::SimdReduceAlu            0      0.00%     82.17% # Class of committed instruction
system.switch_cpus_1.commit.op_class_0::SimdReduceCmp            0      0.00%     82.17% # Class of committed instruction
system.switch_cpus_1.commit.op_class_0::SimdFloatReduceAdd            0      0.00%     82.17% # Class of committed instruction
system.switch_cpus_1.commit.op_class_0::SimdFloatReduceCmp            0      0.00%     82.17% # Class of committed instruction
system.switch_cpus_1.commit.op_class_0::SimdAes            0      0.00%     82.17% # Class of committed instruction
system.switch_cpus_1.commit.op_class_0::SimdAesMix            0      0.00%     82.17% # Class of committed instruction
system.switch_cpus_1.commit.op_class_0::SimdSha1Hash            0      0.00%     82.17% # Class of committed instruction
system.switch_cpus_1.commit.op_class_0::SimdSha1Hash2            0      0.00%     82.17% # Class of committed instruction
system.switch_cpus_1.commit.op_class_0::SimdSha256Hash            0      0.00%     82.17% # Class of committed instruction
system.switch_cpus_1.commit.op_class_0::SimdSha256Hash2            0      0.00%     82.17% # Class of committed instruction
system.switch_cpus_1.commit.op_class_0::SimdShaSigma2            0      0.00%     82.17% # Class of committed instruction
system.switch_cpus_1.commit.op_class_0::SimdShaSigma3            0      0.00%     82.17% # Class of committed instruction
system.switch_cpus_1.commit.op_class_0::SimdPredAlu            0      0.00%     82.17% # Class of committed instruction
system.switch_cpus_1.commit.op_class_0::MemRead    241042382     12.74%     94.91% # Class of committed instruction
system.switch_cpus_1.commit.op_class_0::MemWrite     96338140      5.09%    100.00% # Class of committed instruction
system.switch_cpus_1.commit.op_class_0::FloatMemRead          552      0.00%    100.00% # Class of committed instruction
system.switch_cpus_1.commit.op_class_0::FloatMemWrite            9      0.00%    100.00% # Class of committed instruction
system.switch_cpus_1.commit.op_class_0::IprAccess            0      0.00%    100.00% # Class of committed instruction
system.switch_cpus_1.commit.op_class_0::InstPrefetch            0      0.00%    100.00% # Class of committed instruction
system.switch_cpus_1.commit.op_class_0::total   1892299055                       # Class of committed instruction
system.switch_cpus_1.commit.refs            337381083                       # Number of memory references committed
system.switch_cpus_1.commit.swp_count               0                       # Number of s/w prefetches committed
system.switch_cpus_1.commit.vec_insts               0                       # Number of committed Vector instructions.
system.switch_cpus_1.committedInsts        1000000004                       # Number of Instructions Simulated
system.switch_cpus_1.committedOps          1892299055                       # Number of Ops (including micro ops) Simulated
system.switch_cpus_1.cpi                     1.459652                       # CPI: Cycles Per Instruction
system.switch_cpus_1.cpi_total               1.459652                       # CPI: Total CPI of All Threads
system.switch_cpus_1.decode.BlockedCycles    327313523                       # Number of cycles decode is blocked
system.switch_cpus_1.decode.DecodedInsts   5408057668                       # Number of instructions handled by decode
system.switch_cpus_1.decode.IdleCycles      305920535                       # Number of cycles decode is idle
system.switch_cpus_1.decode.RunCycles       675495718                       # Number of cycles decode is running
system.switch_cpus_1.decode.SquashCycles     82031139                       # Number of cycles decode is squashing
system.switch_cpus_1.decode.UnblockCycles     67490302                       # Number of cycles decode is unblocking
system.switch_cpus_1.dtb.rdAccesses         389520919                       # TLB accesses on read requests
system.switch_cpus_1.dtb.rdMisses             1336778                       # TLB misses on read requests
system.switch_cpus_1.dtb.wrAccesses         134310995                       # TLB accesses on write requests
system.switch_cpus_1.dtb.wrMisses              456678                       # TLB misses on write requests
system.switch_cpus_1.fetch.Branches         721778789                       # Number of branches that fetch encountered
system.switch_cpus_1.fetch.CacheLines       331752853                       # Number of cache lines fetched
system.switch_cpus_1.fetch.Cycles           981083123                       # Number of cycles fetch has run and was not squashing or blocked
system.switch_cpus_1.fetch.IcacheSquashes     19761144                       # Number of outstanding Icache misses that were squashed
system.switch_cpus_1.fetch.IcacheWaitRetryStallCycles           71                       # Number of stall cycles due to full MSHR
system.switch_cpus_1.fetch.Insts           3151439276                       # Number of instructions fetch has processed
system.switch_cpus_1.fetch.MiscStallCycles           49                       # Number of cycles fetch has spent waiting on interrupts, or bad addresses, or out of MSHRs
system.switch_cpus_1.fetch.PendingTrapStallCycles          130                       # Number of stall cycles due to pending traps
system.switch_cpus_1.fetch.SquashCycles     164062278                       # Number of cycles fetch has spent squashing
system.switch_cpus_1.fetch.branchRate        0.494487                       # Number of branch fetches per cycle
system.switch_cpus_1.fetch.icacheStallCycles    395136711                       # Number of cycles fetch is stalled on an Icache miss
system.switch_cpus_1.fetch.predictedBranches    122757978                       # Number of branches that fetch has predicted taken
system.switch_cpus_1.fetch.rate              2.159034                       # Number of inst fetches per cycle
system.switch_cpus_1.fetch.rateDist::samples   1458251223                       # Number of instructions fetched each cycle (Total)
system.switch_cpus_1.fetch.rateDist::mean     4.106994                       # Number of instructions fetched each cycle (Total)
system.switch_cpus_1.fetch.rateDist::stdev     3.670442                       # Number of instructions fetched each cycle (Total)
system.switch_cpus_1.fetch.rateDist::underflows            0      0.00%      0.00% # Number of instructions fetched each cycle (Total)
system.switch_cpus_1.fetch.rateDist::0      567925808     38.95%     38.95% # Number of instructions fetched each cycle (Total)
system.switch_cpus_1.fetch.rateDist::1       29109868      2.00%     40.94% # Number of instructions fetched each cycle (Total)
system.switch_cpus_1.fetch.rateDist::2       47449626      3.25%     44.20% # Number of instructions fetched each cycle (Total)
system.switch_cpus_1.fetch.rateDist::3       34574262      2.37%     46.57% # Number of instructions fetched each cycle (Total)
system.switch_cpus_1.fetch.rateDist::4       38694522      2.65%     49.22% # Number of instructions fetched each cycle (Total)
system.switch_cpus_1.fetch.rateDist::5       57072612      3.91%     53.13% # Number of instructions fetched each cycle (Total)
system.switch_cpus_1.fetch.rateDist::6       60552376      4.15%     57.29% # Number of instructions fetched each cycle (Total)
system.switch_cpus_1.fetch.rateDist::7       25135201      1.72%     59.01% # Number of instructions fetched each cycle (Total)
system.switch_cpus_1.fetch.rateDist::8      597736948     40.99%    100.00% # Number of instructions fetched each cycle (Total)
system.switch_cpus_1.fetch.rateDist::overflows            0      0.00%    100.00% # Number of instructions fetched each cycle (Total)
system.switch_cpus_1.fetch.rateDist::min_value            0                       # Number of instructions fetched each cycle (Total)
system.switch_cpus_1.fetch.rateDist::max_value            8                       # Number of instructions fetched each cycle (Total)
system.switch_cpus_1.fetch.rateDist::total   1458251223                       # Number of instructions fetched each cycle (Total)
system.switch_cpus_1.fp_regfile_reads           13969                       # number of floating regfile reads
system.switch_cpus_1.fp_regfile_writes           6480                       # number of floating regfile writes
system.switch_cpus_1.idleCycles               1400951                       # Total number of cycles that the CPU has spent unscheduled due to idling
system.switch_cpus_1.iew.branchMispredicts    114985862                       # Number of branch mispredicts detected at execute
system.switch_cpus_1.iew.exec_branches      336305659                       # Number of branches executed
system.switch_cpus_1.iew.exec_nop                   0                       # number of nop insts executed
system.switch_cpus_1.iew.exec_rate           2.201526                       # Inst execution rate
system.switch_cpus_1.iew.exec_refs          523836492                       # number of memory reference insts executed
system.switch_cpus_1.iew.exec_stores        134310805                       # Number of stores executed
system.switch_cpus_1.iew.exec_swp                   0                       # number of swp insts executed
system.switch_cpus_1.iew.iewBlockCycles     279595099                       # Number of cycles IEW is blocking
system.switch_cpus_1.iew.iewDispLoadInsts    521545466                       # Number of dispatched load instructions
system.switch_cpus_1.iew.iewDispNonSpecInsts           97                       # Number of dispatched non-speculative instructions
system.switch_cpus_1.iew.iewDispSquashedInsts      1334487                       # Number of squashed instructions skipped by dispatch
system.switch_cpus_1.iew.iewDispStoreInsts    216716880                       # Number of dispatched store instructions
system.switch_cpus_1.iew.iewDispatchedInsts   4158993458                       # Number of instructions dispatched to IQ
system.switch_cpus_1.iew.iewExecLoadInsts    389525687                       # Number of load instructions executed
system.switch_cpus_1.iew.iewExecSquashedInsts    209058484                       # Number of squashed instructions skipped in execute
system.switch_cpus_1.iew.iewExecutedInsts   3213462464                       # Number of executed instructions
system.switch_cpus_1.iew.iewIQFullEvents        26183                       # Number of times the IQ has become full, causing a stall
system.switch_cpus_1.iew.iewIdleCycles              0                       # Number of cycles IEW is idle
system.switch_cpus_1.iew.iewLSQFullEvents       464805                       # Number of times the LSQ has become full, causing a stall
system.switch_cpus_1.iew.iewSquashCycles     82031139                       # Number of cycles IEW is squashing
system.switch_cpus_1.iew.iewUnblockCycles       499500                       # Number of cycles IEW is unblocking
system.switch_cpus_1.iew.lsq.thread0.blockedLoads            0                       # Number of blocked loads due to partial load-store forwarding
system.switch_cpus_1.iew.lsq.thread0.cacheBlocked         2027                       # Number of times an access to memory failed due to the cache being blocked
system.switch_cpus_1.iew.lsq.thread0.forwLoads     15325939                       # Number of loads that had data forwarded from stores
system.switch_cpus_1.iew.lsq.thread0.ignoredResponses       955913                       # Number of memory responses ignored because the instruction is squashed
system.switch_cpus_1.iew.lsq.thread0.invAddrLoads            0                       # Number of loads ignored due to an invalid address
system.switch_cpus_1.iew.lsq.thread0.invAddrSwpfs            0                       # Number of software prefetches ignored due to an invalid address
system.switch_cpus_1.iew.lsq.thread0.memOrderViolation       196436                       # Number of memory ordering violations
system.switch_cpus_1.iew.lsq.thread0.rescheduledLoads        61009                       # Number of loads that were rescheduled
system.switch_cpus_1.iew.lsq.thread0.squashedLoads    280502532                       # Number of loads squashed
system.switch_cpus_1.iew.lsq.thread0.squashedStores    120378731                       # Number of stores squashed
system.switch_cpus_1.iew.memOrderViolationEvents       196436                       # Number of memory order violations
system.switch_cpus_1.iew.predictedNotTakenIncorrect    110116253                       # Number of branches that were predicted not taken incorrectly
system.switch_cpus_1.iew.predictedTakenIncorrect      4869609                       # Number of branches that were predicted taken incorrectly
system.switch_cpus_1.iew.wb_consumers      3342982271                       # num instructions consuming a value
system.switch_cpus_1.iew.wb_count          3139663844                       # cumulative count of insts written-back
system.switch_cpus_1.iew.wb_fanout           0.708210                       # average fanout of values written-back
system.switch_cpus_1.iew.wb_producers      2367531895                       # num instructions producing a value
system.switch_cpus_1.iew.wb_rate             2.150967                       # insts written-back per cycle
system.switch_cpus_1.iew.wb_sent           3168710823                       # cumulative count of insts sent to commit
system.switch_cpus_1.int_regfile_reads     3733040244                       # number of integer regfile reads
system.switch_cpus_1.int_regfile_writes    2662722964                       # number of integer regfile writes
system.switch_cpus_1.ipc                     0.685095                       # IPC: Instructions Per Cycle
system.switch_cpus_1.ipc_total               0.685095                       # IPC: Total IPC of All Threads
system.switch_cpus_1.iq.FU_type_0::No_OpClass     50843863      1.49%      1.49% # Type of FU issued
system.switch_cpus_1.iq.FU_type_0::IntAlu   2782480413     81.30%     82.78% # Type of FU issued
system.switch_cpus_1.iq.FU_type_0::IntMult       637164      0.02%     82.80% # Type of FU issued
system.switch_cpus_1.iq.FU_type_0::IntDiv      5010650      0.15%     82.95% # Type of FU issued
system.switch_cpus_1.iq.FU_type_0::FloatAdd          259      0.00%     82.95% # Type of FU issued
system.switch_cpus_1.iq.FU_type_0::FloatCmp            0      0.00%     82.95% # Type of FU issued
system.switch_cpus_1.iq.FU_type_0::FloatCvt            0      0.00%     82.95% # Type of FU issued
system.switch_cpus_1.iq.FU_type_0::FloatMult            0      0.00%     82.95% # Type of FU issued
system.switch_cpus_1.iq.FU_type_0::FloatMultAcc            0      0.00%     82.95% # Type of FU issued
system.switch_cpus_1.iq.FU_type_0::FloatDiv            0      0.00%     82.95% # Type of FU issued
system.switch_cpus_1.iq.FU_type_0::FloatMisc            0      0.00%     82.95% # Type of FU issued
system.switch_cpus_1.iq.FU_type_0::FloatSqrt            0      0.00%     82.95% # Type of FU issued
system.switch_cpus_1.iq.FU_type_0::SimdAdd            0      0.00%     82.95% # Type of FU issued
system.switch_cpus_1.iq.FU_type_0::SimdAddAcc            0      0.00%     82.95% # Type of FU issued
system.switch_cpus_1.iq.FU_type_0::SimdAlu          604      0.00%     82.95% # Type of FU issued
system.switch_cpus_1.iq.FU_type_0::SimdCmp            0      0.00%     82.95% # Type of FU issued
system.switch_cpus_1.iq.FU_type_0::SimdCvt         1766      0.00%     82.95% # Type of FU issued
system.switch_cpus_1.iq.FU_type_0::SimdMisc         3425      0.00%     82.95% # Type of FU issued
system.switch_cpus_1.iq.FU_type_0::SimdMult            0      0.00%     82.95% # Type of FU issued
system.switch_cpus_1.iq.FU_type_0::SimdMultAcc            0      0.00%     82.95% # Type of FU issued
system.switch_cpus_1.iq.FU_type_0::SimdShift            0      0.00%     82.95% # Type of FU issued
system.switch_cpus_1.iq.FU_type_0::SimdShiftAcc            0      0.00%     82.95% # Type of FU issued
system.switch_cpus_1.iq.FU_type_0::SimdDiv            0      0.00%     82.95% # Type of FU issued
system.switch_cpus_1.iq.FU_type_0::SimdSqrt            0      0.00%     82.95% # Type of FU issued
system.switch_cpus_1.iq.FU_type_0::SimdFloatAdd            0      0.00%     82.95% # Type of FU issued
system.switch_cpus_1.iq.FU_type_0::SimdFloatAlu            0      0.00%     82.95% # Type of FU issued
system.switch_cpus_1.iq.FU_type_0::SimdFloatCmp            0      0.00%     82.95% # Type of FU issued
system.switch_cpus_1.iq.FU_type_0::SimdFloatCvt           25      0.00%     82.95% # Type of FU issued
system.switch_cpus_1.iq.FU_type_0::SimdFloatDiv            1      0.00%     82.95% # Type of FU issued
system.switch_cpus_1.iq.FU_type_0::SimdFloatMisc            0      0.00%     82.95% # Type of FU issued
system.switch_cpus_1.iq.FU_type_0::SimdFloatMult            1      0.00%     82.95% # Type of FU issued
system.switch_cpus_1.iq.FU_type_0::SimdFloatMultAcc            0      0.00%     82.95% # Type of FU issued
system.switch_cpus_1.iq.FU_type_0::SimdFloatSqrt            0      0.00%     82.95% # Type of FU issued
system.switch_cpus_1.iq.FU_type_0::SimdReduceAdd            0      0.00%     82.95% # Type of FU issued
system.switch_cpus_1.iq.FU_type_0::SimdReduceAlu            0      0.00%     82.95% # Type of FU issued
system.switch_cpus_1.iq.FU_type_0::SimdReduceCmp            0      0.00%     82.95% # Type of FU issued
system.switch_cpus_1.iq.FU_type_0::SimdFloatReduceAdd            0      0.00%     82.95% # Type of FU issued
system.switch_cpus_1.iq.FU_type_0::SimdFloatReduceCmp            0      0.00%     82.95% # Type of FU issued
system.switch_cpus_1.iq.FU_type_0::SimdAes            0      0.00%     82.95% # Type of FU issued
system.switch_cpus_1.iq.FU_type_0::SimdAesMix            0      0.00%     82.95% # Type of FU issued
system.switch_cpus_1.iq.FU_type_0::SimdSha1Hash            0      0.00%     82.95% # Type of FU issued
system.switch_cpus_1.iq.FU_type_0::SimdSha1Hash2            0      0.00%     82.95% # Type of FU issued
system.switch_cpus_1.iq.FU_type_0::SimdSha256Hash            0      0.00%     82.95% # Type of FU issued
system.switch_cpus_1.iq.FU_type_0::SimdSha256Hash2            0      0.00%     82.95% # Type of FU issued
system.switch_cpus_1.iq.FU_type_0::SimdShaSigma2            0      0.00%     82.95% # Type of FU issued
system.switch_cpus_1.iq.FU_type_0::SimdShaSigma3            0      0.00%     82.95% # Type of FU issued
system.switch_cpus_1.iq.FU_type_0::SimdPredAlu            0      0.00%     82.95% # Type of FU issued
system.switch_cpus_1.iq.FU_type_0::MemRead    431709049     12.61%     95.56% # Type of FU issued
system.switch_cpus_1.iq.FU_type_0::MemWrite    151831470      4.44%    100.00% # Type of FU issued
system.switch_cpus_1.iq.FU_type_0::FloatMemRead         1581      0.00%    100.00% # Type of FU issued
system.switch_cpus_1.iq.FU_type_0::FloatMemWrite          677      0.00%    100.00% # Type of FU issued
system.switch_cpus_1.iq.FU_type_0::IprAccess            0      0.00%    100.00% # Type of FU issued
system.switch_cpus_1.iq.FU_type_0::InstPrefetch            0      0.00%    100.00% # Type of FU issued
system.switch_cpus_1.iq.FU_type_0::total   3422520948                       # Type of FU issued
system.switch_cpus_1.iq.fp_alu_accesses          9623                       # Number of floating point alu accesses
system.switch_cpus_1.iq.fp_inst_queue_reads        19168                       # Number of floating instruction queue reads
system.switch_cpus_1.iq.fp_inst_queue_wakeup_accesses         8743                       # Number of floating instruction queue wakeup accesses
system.switch_cpus_1.iq.fp_inst_queue_writes        14443                       # Number of floating instruction queue writes
system.switch_cpus_1.iq.fu_busy_cnt         113343252                       # FU busy when requested
system.switch_cpus_1.iq.fu_busy_rate         0.033117                       # FU busy rate (busy events/executed inst)
system.switch_cpus_1.iq.fu_full::No_OpClass            0      0.00%      0.00% # attempts to use FU when none available
system.switch_cpus_1.iq.fu_full::IntAlu     104069417     91.82%     91.82% # attempts to use FU when none available
system.switch_cpus_1.iq.fu_full::IntMult            0      0.00%     91.82% # attempts to use FU when none available
system.switch_cpus_1.iq.fu_full::IntDiv             0      0.00%     91.82% # attempts to use FU when none available
system.switch_cpus_1.iq.fu_full::FloatAdd            0      0.00%     91.82% # attempts to use FU when none available
system.switch_cpus_1.iq.fu_full::FloatCmp            0      0.00%     91.82% # attempts to use FU when none available
system.switch_cpus_1.iq.fu_full::FloatCvt            0      0.00%     91.82% # attempts to use FU when none available
system.switch_cpus_1.iq.fu_full::FloatMult            0      0.00%     91.82% # attempts to use FU when none available
system.switch_cpus_1.iq.fu_full::FloatMultAcc            0      0.00%     91.82% # attempts to use FU when none available
system.switch_cpus_1.iq.fu_full::FloatDiv            0      0.00%     91.82% # attempts to use FU when none available
system.switch_cpus_1.iq.fu_full::FloatMisc            0      0.00%     91.82% # attempts to use FU when none available
system.switch_cpus_1.iq.fu_full::FloatSqrt            0      0.00%     91.82% # attempts to use FU when none available
system.switch_cpus_1.iq.fu_full::SimdAdd            0      0.00%     91.82% # attempts to use FU when none available
system.switch_cpus_1.iq.fu_full::SimdAddAcc            0      0.00%     91.82% # attempts to use FU when none available
system.switch_cpus_1.iq.fu_full::SimdAlu           15      0.00%     91.82% # attempts to use FU when none available
system.switch_cpus_1.iq.fu_full::SimdCmp            0      0.00%     91.82% # attempts to use FU when none available
system.switch_cpus_1.iq.fu_full::SimdCvt            1      0.00%     91.82% # attempts to use FU when none available
system.switch_cpus_1.iq.fu_full::SimdMisc            3      0.00%     91.82% # attempts to use FU when none available
system.switch_cpus_1.iq.fu_full::SimdMult            0      0.00%     91.82% # attempts to use FU when none available
system.switch_cpus_1.iq.fu_full::SimdMultAcc            0      0.00%     91.82% # attempts to use FU when none available
system.switch_cpus_1.iq.fu_full::SimdShift            0      0.00%     91.82% # attempts to use FU when none available
system.switch_cpus_1.iq.fu_full::SimdShiftAcc            0      0.00%     91.82% # attempts to use FU when none available
system.switch_cpus_1.iq.fu_full::SimdDiv            0      0.00%     91.82% # attempts to use FU when none available
system.switch_cpus_1.iq.fu_full::SimdSqrt            0      0.00%     91.82% # attempts to use FU when none available
system.switch_cpus_1.iq.fu_full::SimdFloatAdd            0      0.00%     91.82% # attempts to use FU when none available
system.switch_cpus_1.iq.fu_full::SimdFloatAlu            0      0.00%     91.82% # attempts to use FU when none available
system.switch_cpus_1.iq.fu_full::SimdFloatCmp            0      0.00%     91.82% # attempts to use FU when none available
system.switch_cpus_1.iq.fu_full::SimdFloatCvt            0      0.00%     91.82% # attempts to use FU when none available
system.switch_cpus_1.iq.fu_full::SimdFloatDiv            0      0.00%     91.82% # attempts to use FU when none available
system.switch_cpus_1.iq.fu_full::SimdFloatMisc            0      0.00%     91.82% # attempts to use FU when none available
system.switch_cpus_1.iq.fu_full::SimdFloatMult            0      0.00%     91.82% # attempts to use FU when none available
system.switch_cpus_1.iq.fu_full::SimdFloatMultAcc            0      0.00%     91.82% # attempts to use FU when none available
system.switch_cpus_1.iq.fu_full::SimdFloatSqrt            0      0.00%     91.82% # attempts to use FU when none available
system.switch_cpus_1.iq.fu_full::SimdReduceAdd            0      0.00%     91.82% # attempts to use FU when none available
system.switch_cpus_1.iq.fu_full::SimdReduceAlu            0      0.00%     91.82% # attempts to use FU when none available
system.switch_cpus_1.iq.fu_full::SimdReduceCmp            0      0.00%     91.82% # attempts to use FU when none available
system.switch_cpus_1.iq.fu_full::SimdFloatReduceAdd            0      0.00%     91.82% # attempts to use FU when none available
system.switch_cpus_1.iq.fu_full::SimdFloatReduceCmp            0      0.00%     91.82% # attempts to use FU when none available
system.switch_cpus_1.iq.fu_full::SimdAes            0      0.00%     91.82% # attempts to use FU when none available
system.switch_cpus_1.iq.fu_full::SimdAesMix            0      0.00%     91.82% # attempts to use FU when none available
system.switch_cpus_1.iq.fu_full::SimdSha1Hash            0      0.00%     91.82% # attempts to use FU when none available
system.switch_cpus_1.iq.fu_full::SimdSha1Hash2            0      0.00%     91.82% # attempts to use FU when none available
system.switch_cpus_1.iq.fu_full::SimdSha256Hash            0      0.00%     91.82% # attempts to use FU when none available
system.switch_cpus_1.iq.fu_full::SimdSha256Hash2            0      0.00%     91.82% # attempts to use FU when none available
system.switch_cpus_1.iq.fu_full::SimdShaSigma2            0      0.00%     91.82% # attempts to use FU when none available
system.switch_cpus_1.iq.fu_full::SimdShaSigma3            0      0.00%     91.82% # attempts to use FU when none available
system.switch_cpus_1.iq.fu_full::SimdPredAlu            0      0.00%     91.82% # attempts to use FU when none available
system.switch_cpus_1.iq.fu_full::MemRead      7219082      6.37%     98.19% # attempts to use FU when none available
system.switch_cpus_1.iq.fu_full::MemWrite      2054569      1.81%    100.00% # attempts to use FU when none available
system.switch_cpus_1.iq.fu_full::FloatMemRead            0      0.00%    100.00% # attempts to use FU when none available
system.switch_cpus_1.iq.fu_full::FloatMemWrite          165      0.00%    100.00% # attempts to use FU when none available
system.switch_cpus_1.iq.fu_full::IprAccess            0      0.00%    100.00% # attempts to use FU when none available
system.switch_cpus_1.iq.fu_full::InstPrefetch            0      0.00%    100.00% # attempts to use FU when none available
system.switch_cpus_1.iq.int_alu_accesses   3485010714                       # Number of integer alu accesses
system.switch_cpus_1.iq.int_inst_queue_reads   8473400306                       # Number of integer instruction queue reads
system.switch_cpus_1.iq.int_inst_queue_wakeup_accesses   3139655101                       # Number of integer instruction queue wakeup accesses
system.switch_cpus_1.iq.int_inst_queue_writes   6425843013                       # Number of integer instruction queue writes
system.switch_cpus_1.iq.iqInstsAdded       4158993261                       # Number of instructions added to the IQ (excludes non-spec)
system.switch_cpus_1.iq.iqInstsIssued      3422520948                       # Number of instructions issued
system.switch_cpus_1.iq.iqNonSpecInstsAdded          197                       # Number of non-speculative instructions added to the IQ
system.switch_cpus_1.iq.iqSquashedInstsExamined   2266694403                       # Number of squashed instructions iterated over during squash; mainly for profiling
system.switch_cpus_1.iq.iqSquashedInstsIssued     56783103                       # Number of squashed instructions issued
system.switch_cpus_1.iq.iqSquashedNonSpecRemoved          149                       # Number of squashed non-spec instructions that were removed
system.switch_cpus_1.iq.iqSquashedOperandsExamined   2996432424                       # Number of squashed operands that are examined and possibly removed from graph
system.switch_cpus_1.iq.issued_per_cycle::samples   1458251223                       # Number of insts issued each cycle
system.switch_cpus_1.iq.issued_per_cycle::mean     2.347004                       # Number of insts issued each cycle
system.switch_cpus_1.iq.issued_per_cycle::stdev     2.721082                       # Number of insts issued each cycle
system.switch_cpus_1.iq.issued_per_cycle::underflows            0      0.00%      0.00% # Number of insts issued each cycle
system.switch_cpus_1.iq.issued_per_cycle::0    698684846     47.91%     47.91% # Number of insts issued each cycle
system.switch_cpus_1.iq.issued_per_cycle::1     91453979      6.27%     54.18% # Number of insts issued each cycle
system.switch_cpus_1.iq.issued_per_cycle::2     83136194      5.70%     59.89% # Number of insts issued each cycle
system.switch_cpus_1.iq.issued_per_cycle::3     75068754      5.15%     65.03% # Number of insts issued each cycle
system.switch_cpus_1.iq.issued_per_cycle::4     99040502      6.79%     71.82% # Number of insts issued each cycle
system.switch_cpus_1.iq.issued_per_cycle::5    116001637      7.95%     79.78% # Number of insts issued each cycle
system.switch_cpus_1.iq.issued_per_cycle::6    153428224     10.52%     90.30% # Number of insts issued each cycle
system.switch_cpus_1.iq.issued_per_cycle::7     88647914      6.08%     96.38% # Number of insts issued each cycle
system.switch_cpus_1.iq.issued_per_cycle::8     52789173      3.62%    100.00% # Number of insts issued each cycle
system.switch_cpus_1.iq.issued_per_cycle::overflows            0      0.00%    100.00% # Number of insts issued each cycle
system.switch_cpus_1.iq.issued_per_cycle::min_value            0                       # Number of insts issued each cycle
system.switch_cpus_1.iq.issued_per_cycle::max_value            8                       # Number of insts issued each cycle
system.switch_cpus_1.iq.issued_per_cycle::total   1458251223                       # Number of insts issued each cycle
system.switch_cpus_1.iq.rate                 2.344751                       # Inst issue rate
system.switch_cpus_1.iq.vec_alu_accesses            0                       # Number of vector alu accesses
system.switch_cpus_1.iq.vec_inst_queue_reads            0                       # Number of vector instruction queue reads
system.switch_cpus_1.iq.vec_inst_queue_wakeup_accesses            0                       # Number of vector instruction queue wakeup accesses
system.switch_cpus_1.iq.vec_inst_queue_writes            0                       # Number of vector instruction queue writes
system.switch_cpus_1.itb.rdAccesses                 0                       # TLB accesses on read requests
system.switch_cpus_1.itb.rdMisses                   0                       # TLB misses on read requests
system.switch_cpus_1.itb.wrAccesses         331752878                       # TLB accesses on write requests
system.switch_cpus_1.itb.wrMisses                  71                       # TLB misses on write requests
system.switch_cpus_1.memDep0.conflictingLoads     20483992                       # Number of conflicting loads.
system.switch_cpus_1.memDep0.conflictingStores     15263793                       # Number of conflicting stores.
system.switch_cpus_1.memDep0.insertedLoads    521545466                       # Number of loads inserted to the mem dependence unit.
system.switch_cpus_1.memDep0.insertedStores    216716880                       # Number of stores inserted to the mem dependence unit.
system.switch_cpus_1.misc_regfile_reads    1398210135                       # number of misc regfile reads
system.switch_cpus_1.misc_regfile_writes           72                       # number of misc regfile writes
system.switch_cpus_1.numCycles             1459652174                       # number of cpu cycles simulated
system.switch_cpus_1.numWorkItemsCompleted            0                       # number of work items this cpu completed
system.switch_cpus_1.numWorkItemsStarted            0                       # number of work items this cpu started
system.switch_cpus_1.rename.BlockCycles     327271682                       # Number of cycles rename is blocking
system.switch_cpus_1.rename.CommittedMaps   2277656991                       # Number of HB maps that are committed
system.switch_cpus_1.rename.IQFullEvents      1539967                       # Number of times rename has blocked due to IQ full
system.switch_cpus_1.rename.IdleCycles      358683920                       # Number of cycles rename is idle
system.switch_cpus_1.rename.LQFullEvents      1088201                       # Number of times rename has blocked due to LQ full
system.switch_cpus_1.rename.ROBFullEvents      2590883                       # Number of times rename has blocked due to ROB full
system.switch_cpus_1.rename.RenameLookups  11466266107                       # Number of register rename lookups that rename has made
system.switch_cpus_1.rename.RenamedInsts   4992874367                       # Number of instructions processed by rename
system.switch_cpus_1.rename.RenamedOperands   5796215016                       # Number of destination operands rename has renamed
system.switch_cpus_1.rename.RunCycles       678773202                       # Number of cycles rename is running
system.switch_cpus_1.rename.SQFullEvents       647437                       # Number of times rename has blocked due to SQ full
system.switch_cpus_1.rename.SquashCycles     82031139                       # Number of cycles rename is squashing
system.switch_cpus_1.rename.UnblockCycles     11490332                       # Number of cycles rename is unblocking
system.switch_cpus_1.rename.UndoneMaps     3518558020                       # Number of HB maps that are undone due to squashing
system.switch_cpus_1.rename.fp_rename_lookups        15552                       # Number of floating rename lookups
system.switch_cpus_1.rename.int_rename_lookups   6489486561                       # Number of integer rename lookups
system.switch_cpus_1.rename.serializeStallCycles          943                       # count of cycles rename stalled for serializing inst
system.switch_cpus_1.rename.serializingInsts           49                       # count of serializing insts renamed
system.switch_cpus_1.rename.skidInsts        57763217                       # count of insts added to the skid buffer
system.switch_cpus_1.rename.tempSerializingInsts           49                       # count of temporary serializing insts renamed
system.switch_cpus_1.rob.rob_reads         5137662007                       # The number of ROB reads
system.switch_cpus_1.rob.rob_writes        8688440144                       # The number of ROB writes
system.switch_cpus_1.timesIdled                201376                       # Number of times that the entire CPU went into an idle state and unscheduled itself
system.tol2bus.snoop_filter.hit_multi_requests            2                       # Number of requests hitting in the snoop filter with multiple (>1) holders of the requested data.
system.tol2bus.snoop_filter.hit_multi_snoops            0                       # Number of snoops hitting in the snoop filter with multiple (>1) holders of the requested data.
system.tol2bus.snoop_filter.hit_single_requests      3276935                       # Number of requests hitting in the snoop filter with a single holder of the requested data.
system.tol2bus.snoop_filter.hit_single_snoops          645                       # Number of snoops hitting in the snoop filter with a single holder of the requested data.
system.tol2bus.snoop_filter.tot_requests      6150407                       # Total number of requests made to the snoop filter.
system.tol2bus.snoop_filter.tot_snoops            645                       # Total number of snoops made to the snoop filter.
system.tol3bus.snoop_filter.hit_multi_requests            0                       # Number of requests hitting in the snoop filter with multiple (>1) holders of the requested data.
system.tol3bus.snoop_filter.hit_multi_snoops            0                       # Number of snoops hitting in the snoop filter with multiple (>1) holders of the requested data.
system.tol3bus.snoop_filter.hit_single_requests      1194113                       # Number of requests hitting in the snoop filter with a single holder of the requested data.
system.tol3bus.snoop_filter.hit_single_snoops         2120                       # Number of snoops hitting in the snoop filter with a single holder of the requested data.
system.tol3bus.snoop_filter.tot_requests      2134552                       # Total number of requests made to the snoop filter.
system.tol3bus.snoop_filter.tot_snoops           2120                       # Total number of snoops made to the snoop filter.
system.membus.trans_dist::ReadResp             340950                       # Transaction distribution
system.membus.trans_dist::WritebackDirty       271260                       # Transaction distribution
system.membus.trans_dist::CleanEvict            87115                       # Transaction distribution
system.membus.trans_dist::UpgradeReq               12                       # Transaction distribution
system.membus.trans_dist::ReadExReq             17426                       # Transaction distribution
system.membus.trans_dist::ReadExResp            17426                       # Transaction distribution
system.membus.trans_dist::ReadSharedReq        340950                       # Transaction distribution
system.membus.pkt_count_system.l3.mem_side::system.mem_ctrls.port      1075139                       # Packet count per connected master and slave (bytes)
system.membus.pkt_count_system.l3.mem_side::total      1075139                       # Packet count per connected master and slave (bytes)
system.membus.pkt_count::total                1075139                       # Packet count per connected master and slave (bytes)
system.membus.pkt_size_system.l3.mem_side::system.mem_ctrls.port     40296704                       # Cumulative packet size per connected master and slave (bytes)
system.membus.pkt_size_system.l3.mem_side::total     40296704                       # Cumulative packet size per connected master and slave (bytes)
system.membus.pkt_size::total                40296704                       # Cumulative packet size per connected master and slave (bytes)
system.membus.snoops                                0                       # Total snoops (count)
system.membus.snoopTraffic                          0                       # Total snoop traffic (bytes)
system.membus.snoop_fanout::samples            358388                       # Request fanout histogram
system.membus.snoop_fanout::mean                    0                       # Request fanout histogram
system.membus.snoop_fanout::stdev                   0                       # Request fanout histogram
system.membus.snoop_fanout::underflows              0      0.00%      0.00% # Request fanout histogram
system.membus.snoop_fanout::0                  358388    100.00%    100.00% # Request fanout histogram
system.membus.snoop_fanout::1                       0      0.00%    100.00% # Request fanout histogram
system.membus.snoop_fanout::overflows               0      0.00%    100.00% # Request fanout histogram
system.membus.snoop_fanout::min_value               0                       # Request fanout histogram
system.membus.snoop_fanout::max_value               0                       # Request fanout histogram
system.membus.snoop_fanout::total              358388                       # Request fanout histogram
system.membus.reqLayer2.occupancy          1881328000                       # Layer occupancy (ticks)
system.membus.reqLayer2.utilization               0.3                       # Layer utilization (%)
system.membus.respLayer1.occupancy         1966391000                       # Layer occupancy (ticks)
system.membus.respLayer1.utilization              0.3                       # Layer utilization (%)
system.membus.power_state.pwrStateResidencyTicks::UNDEFINED 1940776636000                       # Cumulative time (in ticks) in various power states
system.switch_cpus_1.dtb.walker.power_state.pwrStateResidencyTicks::UNDEFINED 1940776636000                       # Cumulative time (in ticks) in various power states
system.switch_cpus_1.itb.walker.power_state.pwrStateResidencyTicks::UNDEFINED 1940776636000                       # Cumulative time (in ticks) in various power states
system.switch_cpus_1.power_state.pwrStateResidencyTicks::OFF 1940776636000                       # Cumulative time (in ticks) in various power states
system.switch_cpus.dtb.walker.power_state.pwrStateResidencyTicks::UNDEFINED 1940776636000                       # Cumulative time (in ticks) in various power states
system.switch_cpus.itb.walker.power_state.pwrStateResidencyTicks::UNDEFINED 1940776636000                       # Cumulative time (in ticks) in various power states
system.switch_cpus.power_state.numTransitions            1                       # Number of power state transitions
system.switch_cpus.power_state.pwrStateResidencyTicks::OFF 1940776636000                       # Cumulative time (in ticks) in various power states
system.tol2bus.trans_dist::ReadResp           2288058                       # Transaction distribution
system.tol2bus.trans_dist::WritebackDirty      1273708                       # Transaction distribution
system.tol2bus.trans_dist::WritebackClean      1017910                       # Transaction distribution
system.tol2bus.trans_dist::CleanEvict          871162                       # Transaction distribution
system.tol2bus.trans_dist::UpgradeReq          403463                       # Transaction distribution
system.tol2bus.trans_dist::UpgradeResp         403463                       # Transaction distribution
system.tol2bus.trans_dist::ReadExReq           585414                       # Transaction distribution
system.tol2bus.trans_dist::ReadExResp          585414                       # Transaction distribution
system.tol2bus.trans_dist::ReadCleanReq       2288058                       # Transaction distribution
system.tol2bus.pkt_count_system.cpu.icache.mem_side::system.l2.cpu_side      3053730                       # Packet count per connected master and slave (bytes)
system.tol2bus.pkt_count_system.cpu.dcache.mem_side::system.l2.cpu_side      6373612                       # Packet count per connected master and slave (bytes)
system.tol2bus.pkt_count::total               9427342                       # Packet count per connected master and slave (bytes)
system.tol2bus.pkt_size_system.cpu.icache.mem_side::system.l2.cpu_side    130292480                       # Cumulative packet size per connected master and slave (bytes)
system.tol2bus.pkt_size_system.cpu.dcache.mem_side::system.l2.cpu_side    182046336                       # Cumulative packet size per connected master and slave (bytes)
system.tol2bus.pkt_size::total              312338816                       # Cumulative packet size per connected master and slave (bytes)
system.tol2bus.snoops                          289308                       # Total snoops (count)
system.tol2bus.snoopTraffic                  18226944                       # Total snoop traffic (bytes)
system.tol2bus.snoop_fanout::samples          3566243                       # Request fanout histogram
system.tol2bus.snoop_fanout::mean            0.000181                       # Request fanout histogram
system.tol2bus.snoop_fanout::stdev           0.013468                       # Request fanout histogram
system.tol2bus.snoop_fanout::underflows             0      0.00%      0.00% # Request fanout histogram
system.tol2bus.snoop_fanout::0                3565596     99.98%     99.98% # Request fanout histogram
system.tol2bus.snoop_fanout::1                    647      0.02%    100.00% # Request fanout histogram
system.tol2bus.snoop_fanout::2                      0      0.00%    100.00% # Request fanout histogram
system.tol2bus.snoop_fanout::3                      0      0.00%    100.00% # Request fanout histogram
system.tol2bus.snoop_fanout::4                      0      0.00%    100.00% # Request fanout histogram
system.tol2bus.snoop_fanout::overflows              0      0.00%    100.00% # Request fanout histogram
system.tol2bus.snoop_fanout::min_value              0                       # Request fanout histogram
system.tol2bus.snoop_fanout::max_value              1                       # Request fanout histogram
system.tol2bus.snoop_fanout::total            3566243                       # Request fanout histogram
system.tol2bus.reqLayer0.occupancy         5082025500                       # Layer occupancy (ticks)
system.tol2bus.reqLayer0.utilization              0.7                       # Layer utilization (%)
system.tol2bus.respLayer1.occupancy        2985765615                       # Layer occupancy (ticks)
system.tol2bus.respLayer1.utilization             0.4                       # Layer utilization (%)
system.tol2bus.respLayer0.occupancy        1527071586                       # Layer occupancy (ticks)
system.tol2bus.respLayer0.utilization             0.2                       # Layer utilization (%)
system.tol2bus.power_state.pwrStateResidencyTicks::UNDEFINED 1940776636000                       # Cumulative time (in ticks) in various power states
system.voltage_domain.voltage                       1                       # Voltage in Volts
system.clk_domain.clock                          1000                       # Clock period in ticks
system.l2.demand_hits::.switch_cpus_1.inst      1015490                       # number of demand (read+write) hits
system.l2.demand_hits::.switch_cpus_1.data       917541                       # number of demand (read+write) hits
system.l2.demand_hits::total                  1933031                       # number of demand (read+write) hits
system.l2.overall_hits::.switch_cpus_1.inst      1015490                       # number of overall hits
system.l2.overall_hits::.switch_cpus_1.data       917541                       # number of overall hits
system.l2.overall_hits::total                 1933031                       # number of overall hits
system.l2.demand_misses::.switch_cpus_1.inst         2420                       # number of demand (read+write) misses
system.l2.demand_misses::.switch_cpus_1.data       938021                       # number of demand (read+write) misses
system.l2.demand_misses::total                 940441                       # number of demand (read+write) misses
system.l2.overall_misses::.switch_cpus_1.inst         2420                       # number of overall misses
system.l2.overall_misses::.switch_cpus_1.data       938021                       # number of overall misses
system.l2.overall_misses::total                940441                       # number of overall misses
system.l2.demand_miss_latency::.switch_cpus_1.inst    135558500                       # number of demand (read+write) miss cycles
system.l2.demand_miss_latency::.switch_cpus_1.data  54822116500                       # number of demand (read+write) miss cycles
system.l2.demand_miss_latency::total      54957675000                       # number of demand (read+write) miss cycles
system.l2.overall_miss_latency::.switch_cpus_1.inst    135558500                       # number of overall miss cycles
system.l2.overall_miss_latency::.switch_cpus_1.data  54822116500                       # number of overall miss cycles
system.l2.overall_miss_latency::total     54957675000                       # number of overall miss cycles
system.l2.demand_accesses::.switch_cpus_1.inst      1017910                       # number of demand (read+write) accesses
system.l2.demand_accesses::.switch_cpus_1.data      1855562                       # number of demand (read+write) accesses
system.l2.demand_accesses::total              2873472                       # number of demand (read+write) accesses
system.l2.overall_accesses::.switch_cpus_1.inst      1017910                       # number of overall (read+write) accesses
system.l2.overall_accesses::.switch_cpus_1.data      1855562                       # number of overall (read+write) accesses
system.l2.overall_accesses::total             2873472                       # number of overall (read+write) accesses
system.l2.demand_miss_rate::.switch_cpus_1.inst     0.002377                       # miss rate for demand accesses
[...]
system.cpu.dcache.demand_miss_latency::total  95392184989                       # number of demand (read+write) miss cycles
system.cpu.dcache.overall_miss_latency::.switch_cpus.data   3410101000                       # number of overall miss cycles
system.cpu.dcache.overall_miss_latency::.switch_cpus_1.data  91982083989                       # number of overall miss cycles
system.cpu.dcache.overall_miss_latency::total  95392184989                       # number of overall miss cycles
system.cpu.dcache.demand_accesses::.cpu.data    383069519                       # number of demand (read+write) accesses
system.cpu.dcache.demand_accesses::.switch_cpus.data     16518877                       # number of demand (read+write) accesses
system.cpu.dcache.demand_accesses::.switch_cpus_1.data    469842756                       # number of demand (read+write) accesses
system.cpu.dcache.demand_accesses::total    869431152                       # number of demand (read+write) accesses
system.cpu.dcache.overall_accesses::.cpu.data    383069519                       # number of overall (read+write) accesses
system.cpu.dcache.overall_accesses::.switch_cpus.data     16518877                       # number of overall (read+write) accesses
system.cpu.dcache.overall_accesses::.switch_cpus_1.data    469842756                       # number of overall (read+write) accesses
system.cpu.dcache.overall_accesses::total    869431152                       # number of overall (read+write) accesses
system.cpu.dcache.demand_miss_rate::.cpu.data     0.026183                       # miss rate for demand accesses
system.cpu.dcache.demand_miss_rate::.switch_cpus.data     0.005795                       # miss rate for demand accesses
system.cpu.dcache.demand_miss_rate::.switch_cpus_1.data     0.006121                       # miss rate for demand accesses
system.cpu.dcache.demand_miss_rate::total     0.014954                       # miss rate for demand accesses
system.cpu.dcache.overall_miss_rate::.cpu.data     0.026183                       # miss rate for overall accesses
system.cpu.dcache.overall_miss_rate::.switch_cpus.data     0.005795                       # miss rate for overall accesses
system.cpu.dcache.overall_miss_rate::.switch_cpus_1.data     0.006121                       # miss rate for overall accesses
system.cpu.dcache.overall_miss_rate::total     0.014954                       # miss rate for overall accesses
system.cpu.dcache.demand_avg_miss_latency::.switch_cpus.data 35623.560997                       # average overall miss latency
system.cpu.dcache.demand_avg_miss_latency::.switch_cpus_1.data 31981.843288                       # average overall miss latency
system.cpu.dcache.demand_avg_miss_latency::total  7336.793163                       # average overall miss latency
system.cpu.dcache.overall_avg_miss_latency::.switch_cpus.data 35623.560997                       # average overall miss latency
system.cpu.dcache.overall_avg_miss_latency::.switch_cpus_1.data 31981.843288                       # average overall miss latency
system.cpu.dcache.overall_avg_miss_latency::total  7336.793163                       # average overall miss latency
system.cpu.dcache.blocked_cycles::no_mshrs        41398                       # number of cycles access was blocked
system.cpu.dcache.blocked_cycles::no_targets         1185                       # number of cycles access was blocked
system.cpu.dcache.blocked::no_mshrs              3370                       # number of cycles access was blocked
system.cpu.dcache.blocked::no_targets               5                       # number of cycles access was blocked
system.cpu.dcache.avg_blocked_cycles::no_mshrs    12.284273                       # average number of cycles each access was blocked
system.cpu.dcache.avg_blocked_cycles::no_targets          237                       # average number of cycles each access was blocked
system.cpu.dcache.writebacks::.writebacks     10160107                       # number of writebacks
system.cpu.dcache.writebacks::total          10160107                       # number of writebacks
system.cpu.dcache.demand_mshr_hits::.switch_cpus_1.data       625004                       # number of demand (read+write) MSHR hits
system.cpu.dcache.demand_mshr_hits::total       625004                       # number of demand (read+write) MSHR hits
system.cpu.dcache.overall_mshr_hits::.switch_cpus_1.data       625004                       # number of overall MSHR hits
system.cpu.dcache.overall_mshr_hits::total       625004                       # number of overall MSHR hits
system.cpu.dcache.demand_mshr_misses::.switch_cpus.data        95726                       # number of demand (read+write) MSHR misses
system.cpu.dcache.demand_mshr_misses::.switch_cpus_1.data      2251068                       # number of demand (read+write) MSHR misses
system.cpu.dcache.demand_mshr_misses::total      2346794                       # number of demand (read+write) MSHR misses
system.cpu.dcache.overall_mshr_misses::.switch_cpus.data        95726                       # number of overall MSHR misses
system.cpu.dcache.overall_mshr_misses::.switch_cpus_1.data      2251068                       # number of overall MSHR misses
system.cpu.dcache.overall_mshr_misses::total      2346794                       # number of overall MSHR misses
system.cpu.dcache.demand_mshr_miss_latency::.switch_cpus.data   3314375000                       # number of demand (read+write) MSHR miss cycles
system.cpu.dcache.demand_mshr_miss_latency::.switch_cpus_1.data  75511772989                       # number of demand (read+write) MSHR miss cycles
system.cpu.dcache.demand_mshr_miss_latency::total  78826147989                       # number of demand (read+write) MSHR miss cycles
system.cpu.dcache.overall_mshr_miss_latency::.switch_cpus.data   3314375000                       # number of overall MSHR miss cycles
system.cpu.dcache.overall_mshr_miss_latency::.switch_cpus_1.data  75511772989                       # number of overall MSHR miss cycles
system.cpu.dcache.overall_mshr_miss_latency::total  78826147989                       # number of overall MSHR miss cycles
system.cpu.dcache.demand_mshr_miss_rate::.switch_cpus.data     0.005795                       # mshr miss rate for demand accesses
system.cpu.dcache.demand_mshr_miss_rate::.switch_cpus_1.data     0.004791                       # mshr miss rate for demand accesses
system.cpu.dcache.demand_mshr_miss_rate::total     0.002699                       # mshr miss rate for demand accesses
system.cpu.dcache.overall_mshr_miss_rate::.switch_cpus.data     0.005795                       # mshr miss rate for overall accesses
system.cpu.dcache.overall_mshr_miss_rate::.switch_cpus_1.data     0.004791                       # mshr miss rate for overall accesses
system.cpu.dcache.overall_mshr_miss_rate::total     0.002699                       # mshr miss rate for overall accesses
system.cpu.dcache.demand_avg_mshr_miss_latency::.switch_cpus.data 34623.560997                       # average overall mshr miss latency
system.cpu.dcache.demand_avg_mshr_miss_latency::.switch_cpus_1.data 33544.865366                       # average overall mshr miss latency
system.cpu.dcache.demand_avg_mshr_miss_latency::total 33588.865486                       # average overall mshr miss latency
system.cpu.dcache.overall_avg_mshr_miss_latency::.switch_cpus.data 34623.560997                       # average overall mshr miss latency
system.cpu.dcache.overall_avg_mshr_miss_latency::.switch_cpus_1.data 33544.865366                       # average overall mshr miss latency
system.cpu.dcache.overall_avg_mshr_miss_latency::total 33588.865486                       # average overall mshr miss latency
system.cpu.dcache.replacements               11650705                       # number of replacements
system.cpu.dcache.ReadReq_hits::.cpu.data    226395386                       # number of ReadReq hits
system.cpu.dcache.ReadReq_hits::.switch_cpus.data     11964001                       # number of ReadReq hits
system.cpu.dcache.ReadReq_hits::.switch_cpus_1.data    371617412                       # number of ReadReq hits
system.cpu.dcache.ReadReq_hits::total       609976799                       # number of ReadReq hits
system.cpu.dcache.ReadReq_misses::.cpu.data       905512                       # number of ReadReq misses
system.cpu.dcache.ReadReq_misses::.switch_cpus.data        48838                       # number of ReadReq misses
system.cpu.dcache.ReadReq_misses::.switch_cpus_1.data      1887195                       # number of ReadReq misses
system.cpu.dcache.ReadReq_misses::total       2841545                       # number of ReadReq misses
system.cpu.dcache.ReadReq_miss_latency::.switch_cpus.data   2512477500                       # number of ReadReq miss cycles
system.cpu.dcache.ReadReq_miss_latency::.switch_cpus_1.data  73936727000                       # number of ReadReq miss cycles
system.cpu.dcache.ReadReq_miss_latency::total  76449204500                       # number of ReadReq miss cycles
system.cpu.dcache.ReadReq_accesses::.cpu.data    227300898                       # number of ReadReq accesses(hits+misses)
system.cpu.dcache.ReadReq_accesses::.switch_cpus.data     12012839                       # number of ReadReq accesses(hits+misses)
system.cpu.dcache.ReadReq_accesses::.switch_cpus_1.data    373504607                       # number of ReadReq accesses(hits+misses)
system.cpu.dcache.ReadReq_accesses::total    612818344                       # number of ReadReq accesses(hits+misses)
system.cpu.dcache.ReadReq_miss_rate::.cpu.data     0.003984                       # miss rate for ReadReq accesses
system.cpu.dcache.ReadReq_miss_rate::.switch_cpus.data     0.004065                       # miss rate for ReadReq accesses
system.cpu.dcache.ReadReq_miss_rate::.switch_cpus_1.data     0.005053                       # miss rate for ReadReq accesses
system.cpu.dcache.ReadReq_miss_rate::total     0.004637                       # miss rate for ReadReq accesses
system.cpu.dcache.ReadReq_avg_miss_latency::.switch_cpus.data 51445.134936                       # average ReadReq miss latency
system.cpu.dcache.ReadReq_avg_miss_latency::.switch_cpus_1.data 39178.106661                       # average ReadReq miss latency
system.cpu.dcache.ReadReq_avg_miss_latency::total 26904.097771                       # average ReadReq miss latency
system.cpu.dcache.ReadReq_mshr_hits::.switch_cpus_1.data       616349                       # number of ReadReq MSHR hits
system.cpu.dcache.ReadReq_mshr_hits::total       616349                       # number of ReadReq MSHR hits
system.cpu.dcache.ReadReq_mshr_misses::.switch_cpus.data        48838                       # number of ReadReq MSHR misses
system.cpu.dcache.ReadReq_mshr_misses::.switch_cpus_1.data      1270846                       # number of ReadReq MSHR misses
system.cpu.dcache.ReadReq_mshr_misses::total      1319684                       # number of ReadReq MSHR misses
system.cpu.dcache.ReadReq_mshr_miss_latency::.switch_cpus.data   2463639500                       # number of ReadReq MSHR miss cycles
system.cpu.dcache.ReadReq_mshr_miss_latency::.switch_cpus_1.data  58464578500                       # number of ReadReq MSHR miss cycles
system.cpu.dcache.ReadReq_mshr_miss_latency::total  60928218000                       # number of ReadReq MSHR miss cycles
system.cpu.dcache.ReadReq_mshr_miss_rate::.switch_cpus.data     0.004065                       # mshr miss rate for ReadReq accesses
system.cpu.dcache.ReadReq_mshr_miss_rate::.switch_cpus_1.data     0.003402                       # mshr miss rate for ReadReq accesses
system.cpu.dcache.ReadReq_mshr_miss_rate::total     0.002153                       # mshr miss rate for ReadReq accesses
system.cpu.dcache.ReadReq_avg_mshr_miss_latency::.switch_cpus.data 50445.134936                       # average ReadReq mshr miss latency
system.cpu.dcache.ReadReq_avg_mshr_miss_latency::.switch_cpus_1.data 46004.455693                       # average ReadReq mshr miss latency
system.cpu.dcache.ReadReq_avg_mshr_miss_latency::total 46168.793438                       # average ReadReq mshr miss latency
system.cpu.dcache.WriteReq_hits::.cpu.data    146644040                       # number of WriteReq hits
system.cpu.dcache.WriteReq_hits::.switch_cpus.data      4459150                       # number of WriteReq hits
system.cpu.dcache.WriteReq_hits::.switch_cpus_1.data     95349272                       # number of WriteReq hits
system.cpu.dcache.WriteReq_hits::total      246452462                       # number of WriteReq hits
system.cpu.dcache.WriteReq_misses::.cpu.data      9124581                       # number of WriteReq misses
system.cpu.dcache.WriteReq_misses::.switch_cpus.data        46888                       # number of WriteReq misses
system.cpu.dcache.WriteReq_misses::.switch_cpus_1.data       988877                       # number of WriteReq misses
system.cpu.dcache.WriteReq_misses::total     10160346                       # number of WriteReq misses
system.cpu.dcache.WriteReq_miss_latency::.switch_cpus.data    897623500                       # number of WriteReq miss cycles
system.cpu.dcache.WriteReq_miss_latency::.switch_cpus_1.data  18045356989                       # number of WriteReq miss cycles
system.cpu.dcache.WriteReq_miss_latency::total  18942980489                       # number of WriteReq miss cycles
system.cpu.dcache.WriteReq_accesses::.cpu.data    155768621                       # number of WriteReq accesses(hits+misses)
system.cpu.dcache.WriteReq_accesses::.switch_cpus.data      4506038                       # number of WriteReq accesses(hits+misses)
system.cpu.dcache.WriteReq_accesses::.switch_cpus_1.data     96338149                       # number of WriteReq accesses(hits+misses)
system.cpu.dcache.WriteReq_accesses::total    256612808                       # number of WriteReq accesses(hits+misses)
system.cpu.dcache.WriteReq_miss_rate::.cpu.data     0.058578                       # miss rate for WriteReq accesses
system.cpu.dcache.WriteReq_miss_rate::.switch_cpus.data     0.010406                       # miss rate for WriteReq accesses
system.cpu.dcache.WriteReq_miss_rate::.switch_cpus_1.data     0.010265                       # miss rate for WriteReq accesses
system.cpu.dcache.WriteReq_miss_rate::total     0.039594                       # miss rate for WriteReq accesses
system.cpu.dcache.WriteReq_avg_miss_latency::.switch_cpus.data 19143.992066                       # average WriteReq miss latency
system.cpu.dcache.WriteReq_avg_miss_latency::.switch_cpus_1.data 18248.333199                       # average WriteReq miss latency
system.cpu.dcache.WriteReq_avg_miss_latency::total  1864.403091                       # average WriteReq miss latency
system.cpu.dcache.WriteReq_mshr_hits::.switch_cpus_1.data         8655                       # number of WriteReq MSHR hits
system.cpu.dcache.WriteReq_mshr_hits::total         8655                       # number of WriteReq MSHR hits
system.cpu.dcache.WriteReq_mshr_misses::.switch_cpus.data        46888                       # number of WriteReq MSHR misses
system.cpu.dcache.WriteReq_mshr_misses::.switch_cpus_1.data       980222                       # number of WriteReq MSHR misses
system.cpu.dcache.WriteReq_mshr_misses::total      1027110                       # number of WriteReq MSHR misses
system.cpu.dcache.WriteReq_mshr_miss_latency::.switch_cpus.data    850735500                       # number of WriteReq MSHR miss cycles
system.cpu.dcache.WriteReq_mshr_miss_latency::.switch_cpus_1.data  17047194489                       # number of WriteReq MSHR miss cycles
system.cpu.dcache.WriteReq_mshr_miss_latency::total  17897929989                       # number of WriteReq MSHR miss cycles
system.cpu.dcache.WriteReq_mshr_miss_rate::.switch_cpus.data     0.010406                       # mshr miss rate for WriteReq accesses
system.cpu.dcache.WriteReq_mshr_miss_rate::.switch_cpus_1.data     0.010175                       # mshr miss rate for WriteReq accesses
system.cpu.dcache.WriteReq_mshr_miss_rate::total     0.004003                       # mshr miss rate for WriteReq accesses
system.cpu.dcache.WriteReq_avg_mshr_miss_latency::.switch_cpus.data 18143.992066                       # average WriteReq mshr miss latency
system.cpu.dcache.WriteReq_avg_mshr_miss_latency::.switch_cpus_1.data 17391.156788                       # average WriteReq mshr miss latency
system.cpu.dcache.WriteReq_avg_mshr_miss_latency::total 17425.524032                       # average WriteReq mshr miss latency
system.cpu.dcache.power_state.pwrStateResidencyTicks::UNDEFINED 1940776636000                       # Cumulative time (in ticks) in various power states
system.cpu.dcache.tags.tagsinuse           511.996953                       # Cycle average of tags in use
system.cpu.dcache.tags.total_refs           868815752                       # Total number of references to valid blocks.
system.cpu.dcache.tags.sampled_refs          11651217                       # Sample count of references to valid blocks.
system.cpu.dcache.tags.avg_refs             74.568670                       # Average number of references to valid blocks.
system.cpu.dcache.tags.warmup_cycle              1500                       # Cycle when the warmup percentage was hit.
system.cpu.dcache.tags.occ_blocks::.cpu.data   300.566147                       # Average occupied blocks per requestor
system.cpu.dcache.tags.occ_blocks::.switch_cpus.data    21.941764                       # Average occupied blocks per requestor
system.cpu.dcache.tags.occ_blocks::.switch_cpus_1.data   189.489043                       # Average occupied blocks per requestor
system.cpu.dcache.tags.occ_percent::.cpu.data     0.587043                       # Average percentage of cache occupancy
system.cpu.dcache.tags.occ_percent::.switch_cpus.data     0.042855                       # Average percentage of cache occupancy
system.cpu.dcache.tags.occ_percent::.switch_cpus_1.data     0.370096                       # Average percentage of cache occupancy
system.cpu.dcache.tags.occ_percent::total     0.999994                       # Average percentage of cache occupancy
system.cpu.dcache.tags.occ_task_id_blocks::1024          512                       # Occupied blocks per task id
system.cpu.dcache.tags.age_task_id_blocks_1024::0           12                       # Occupied blocks per task id
system.cpu.dcache.tags.age_task_id_blocks_1024::1          102                       # Occupied blocks per task id
system.cpu.dcache.tags.age_task_id_blocks_1024::2          255                       # Occupied blocks per task id
system.cpu.dcache.tags.age_task_id_blocks_1024::3          109                       # Occupied blocks per task id
system.cpu.dcache.tags.age_task_id_blocks_1024::4           34                       # Occupied blocks per task id
system.cpu.dcache.tags.occ_task_id_percent::1024            1                       # Percentage of cache occupancy per task id
system.cpu.dcache.tags.tag_accesses        3489375825                       # Number of tag accesses
system.cpu.dcache.tags.data_accesses       3489375825                       # Number of data accesses
system.cpu.dcache.tags.power_state.pwrStateResidencyTicks::UNDEFINED 1940776636000                       # Cumulative time (in ticks) in various power states
system.cpu.power_state.numTransitions               2                       # Number of power state transitions
system.cpu.power_state.pwrStateResidencyTicks::ON 1123541832500                       # Cumulative time (in ticks) in various power states
system.cpu.power_state.pwrStateResidencyTicks::OFF 817234803500                       # Cumulative time (in ticks) in various power states

---------- End Simulation Statistics   ----------
