
---------- Begin Simulation Statistics ----------
final_tick                               1763684782000                       # Number of ticks from beginning of simulation (restored from checkpoints and never reset)
host_inst_rate                                 162036                       # Simulator instruction rate (inst/s)
host_mem_usage                                4605672                       # Number of bytes of host memory used
host_op_rate                                   271989                       # Simulator op (including micro ops) rate (op/s)
host_seconds                                 12651.55                       # Real time elapsed on the host
host_tick_rate                               42113691                       # Simulator tick rate (ticks/s)
sim_freq                                 1000000000000                       # Frequency of simulated ticks
sim_insts                                  2050000003                       # Number of instructions simulated
sim_ops                                    3441082279                       # Number of ops (including micro ops) simulated
sim_seconds                                  0.532803                       # Number of seconds simulated
sim_ticks                                532803290750                       # Number of ticks simulated
system.cpu.committedInsts                           0                       # Number of instructions committed
system.cpu.committedOps                             0                       # Number of ops (including micro ops) committed
system.cpu.dtb.rdAccesses                           0                       # TLB accesses on read requests
system.cpu.dtb.rdMisses                             0                       # TLB misses on read requests
system.cpu.dtb.wrAccesses                           0                       # TLB accesses on write requests
system.cpu.dtb.wrMisses                             0                       # TLB misses on write requests
system.cpu.idle_fraction                            0                       # Percentage of idle cycles
system.cpu.itb.rdAccesses                           0                       # TLB accesses on read requests
system.cpu.itb.rdMisses                             0                       # TLB misses on read requests
system.cpu.itb.wrAccesses                           0                       # TLB accesses on write requests
system.cpu.itb.wrMisses                             0                       # TLB misses on write requests
system.cpu.not_idle_fraction                        1                       # Percentage of non-idle cycles
system.cpu.numCycles                                0                       # number of cpu cycles simulated
system.cpu.numWorkItemsCompleted                    0                       # number of work items this cpu completed
system.cpu.numWorkItemsStarted                      0                       # number of work items this cpu started
system.cpu.num_busy_cycles                          0                       # Number of busy cycles
system.cpu.num_conditional_control_insts            0                       # number of instructions that are conditional controls
system.cpu.num_fp_alu_accesses                      0                       # Number of float alu accesses
system.cpu.num_fp_insts                             0                       # number of float instructions
system.cpu.num_fp_register_reads                    0                       # number of times the floating registers were read
system.cpu.num_fp_register_writes                   0                       # number of times the floating registers were written
system.cpu.num_func_calls                           0                       # number of times a function call or return occured
system.cpu.num_idle_cycles                          0                       # Number of idle cycles
system.cpu.num_int_alu_accesses                     0                       # Number of integer alu accesses
system.cpu.num_int_insts                            0                       # number of integer instructions
system.cpu.num_int_register_reads                   0                       # number of times the integer registers were read
system.cpu.num_int_register_writes                  0                       # number of times the integer registers were written
system.cpu.num_load_insts                           0                       # Number of load instructions
system.cpu.num_mem_refs                             0                       # number of memory refs
system.cpu.num_store_insts                          0                       # Number of store instructions
system.cpu.num_vec_alu_accesses                     0                       # Number of vector alu accesses
system.cpu.num_vec_insts                            0                       # number of vector instructions
system.cpu.num_vec_register_reads                   0                       # number of times the vector registers were read
system.cpu.num_vec_register_writes                  0                       # number of times the vector registers were written
system.cpu.op_class::No_OpClass                     0                       # Class of executed instruction
system.cpu.op_class::IntAlu                         0                       # Class of executed instruction
system.cpu.op_class::IntMult                        0                       # Class of executed instruction
system.cpu.op_class::IntDiv                         0                       # Class of executed instruction
system.cpu.op_class::FloatAdd                       0                       # Class of executed instruction
system.cpu.op_class::FloatCmp                       0                       # Class of executed instruction
system.cpu.op_class::FloatCvt                       0                       # Class of executed instruction
system.cpu.op_class::FloatMult                      0                       # Class of executed instruction
system.cpu.op_class::FloatMultAcc                   0                       # Class of executed instruction
system.cpu.op_class::FloatDiv                       0                       # Class of executed instruction
system.cpu.op_class::FloatMisc                      0                       # Class of executed instruction
system.cpu.op_class::FloatSqrt                      0                       # Class of executed instruction
system.cpu.op_class::SimdAdd                        0                       # Class of executed instruction
system.cpu.op_class::SimdAddAcc                     0                       # Class of executed instruction
system.cpu.op_class::SimdAlu                        0                       # Class of executed instruction
system.cpu.op_class::SimdCmp                        0                       # Class of executed instruction
system.cpu.op_class::SimdCvt                        0                       # Class of executed instruction
system.cpu.op_class::SimdMisc                       0                       # Class of executed instruction
system.cpu.op_class::SimdMult                       0                       # Class of executed instruction
system.cpu.op_class::SimdMultAcc                    0                       # Class of executed instruction
system.cpu.op_class::SimdShift                      0                       # Class of executed instruction
system.cpu.op_class::SimdShiftAcc                   0                       # Class of executed instruction
system.cpu.op_class::SimdDiv                        0                       # Class of executed instruction
system.cpu.op_class::SimdSqrt                       0                       # Class of executed instruction
system.cpu.op_class::SimdFloatAdd                   0                       # Class of executed instruction
system.cpu.op_class::SimdFloatAlu                   0                       # Class of executed instruction
system.cpu.op_class::SimdFloatCmp                   0                       # Class of executed instruction
system.cpu.op_class::SimdFloatCvt                   0                       # Class of executed instruction
system.cpu.op_class::SimdFloatDiv                   0                       # Class of executed instruction
system.cpu.op_class::SimdFloatMisc                  0                       # Class of executed instruction
system.cpu.op_class::SimdFloatMult                  0                       # Class of executed instruction
system.cpu.op_class::SimdFloatMultAcc               0                       # Class of executed instruction
system.cpu.op_class::SimdFloatSqrt                  0                       # Class of executed instruction
system.cpu.op_class::SimdReduceAdd                  0                       # Class of executed instruction
system.cpu.op_class::SimdReduceAlu                  0                       # Class of executed instruction
system.cpu.op_class::SimdReduceCmp                  0                       # Class of executed instruction
system.cpu.op_class::SimdFloatReduceAdd             0                       # Class of executed instruction
system.cpu.op_class::SimdFloatReduceCmp             0                       # Class of executed instruction
system.cpu.op_class::SimdAes                        0                       # Class of executed instruction
system.cpu.op_class::SimdAesMix                     0                       # Class of executed instruction
system.cpu.op_class::SimdSha1Hash                   0                       # Class of executed instruction
system.cpu.op_class::SimdSha1Hash2                  0                       # Class of executed instruction
system.cpu.op_class::SimdSha256Hash                 0                       # Class of executed instruction
system.cpu.op_class::SimdSha256Hash2                0                       # Class of executed instruction
system.cpu.op_class::SimdShaSigma2                  0                       # Class of executed instruction
system.cpu.op_class::SimdShaSigma3                  0                       # Class of executed instruction
system.cpu.op_class::SimdPredAlu                    0                       # Class of executed instruction
system.cpu.op_class::MemRead                        0                       # Class of executed instruction
system.cpu.op_class::MemWrite                       0                       # Class of executed instruction
system.cpu.op_class::FloatMemRead                   0                       # Class of executed instruction
system.cpu.op_class::FloatMemWrite                  0                       # Class of executed instruction
system.cpu.op_class::IprAccess                      0                       # Class of executed instruction
system.cpu.op_class::InstPrefetch                   0                       # Class of executed instruction
system.cpu.op_class::total                          0                       # Class of executed instruction
system.cpu.workload.numSyscalls                     0                       # Number of system calls
system.membus.snoop_filter.hit_multi_requests            0                       # Number of requests hitting in the snoop filter with multiple (>1) holders of the requested data.
system.membus.snoop_filter.hit_multi_snoops            0                       # Number of snoops hitting in the snoop filter with multiple (>1) holders of the requested data.
system.membus.snoop_filter.hit_single_requests      5020236                       # Number of requests hitting in the snoop filter with a single holder of the requested data.
system.membus.snoop_filter.hit_single_snoops            0                       # Number of snoops hitting in the snoop filter with a single holder of the requested data.
system.membus.snoop_filter.tot_requests      10040481                       # Total number of requests made to the snoop filter.
system.membus.snoop_filter.tot_snoops               0                       # Total number of snoops made to the snoop filter.
system.switch_cpus.committedInsts                   0                       # Number of instructions committed
system.switch_cpus.committedOps                     0                       # Number of ops (including micro ops) committed
system.switch_cpus.dtb.rdAccesses                   0                       # TLB accesses on read requests
system.switch_cpus.dtb.rdMisses                     0                       # TLB misses on read requests
system.switch_cpus.dtb.wrAccesses                   0                       # TLB accesses on write requests
system.switch_cpus.dtb.wrMisses                     0                       # TLB misses on write requests
system.switch_cpus.idle_fraction                    0                       # Percentage of idle cycles
system.switch_cpus.itb.rdAccesses                   0                       # TLB accesses on read requests
system.switch_cpus.itb.rdMisses                     0                       # TLB misses on read requests
system.switch_cpus.itb.wrAccesses                   0                       # TLB accesses on write requests
system.switch_cpus.itb.wrMisses                     0                       # TLB misses on write requests
system.switch_cpus.not_idle_fraction                1                       # Percentage of non-idle cycles
system.switch_cpus.numCycles                        0                       # number of cpu cycles simulated
system.switch_cpus.numWorkItemsCompleted            0                       # number of work items this cpu completed
system.switch_cpus.numWorkItemsStarted              0                       # number of work items this cpu started
system.switch_cpus.num_busy_cycles                  0                       # Number of busy cycles
system.switch_cpus.num_conditional_control_insts            0                       # number of instructions that are conditional controls
system.switch_cpus.num_fp_alu_accesses              0                       # Number of float alu accesses
system.switch_cpus.num_fp_insts                     0                       # number of float instructions
system.switch_cpus.num_fp_register_reads            0                       # number of times the floating registers were read
system.switch_cpus.num_fp_register_writes            0                       # number of times the floating registers were written
system.switch_cpus.num_func_calls                   0                       # number of times a function call or return occured
system.switch_cpus.num_idle_cycles                  0                       # Number of idle cycles
system.switch_cpus.num_int_alu_accesses             0                       # Number of integer alu accesses
system.switch_cpus.num_int_insts                    0                       # number of integer instructions
system.switch_cpus.num_int_register_reads            0                       # number of times the integer registers were read
system.switch_cpus.num_int_register_writes            0                       # number of times the integer registers were written
system.switch_cpus.num_load_insts                   0                       # Number of load instructions
system.switch_cpus.num_mem_refs                     0                       # number of memory refs
system.switch_cpus.num_store_insts                  0                       # Number of store instructions
system.switch_cpus.num_vec_alu_accesses             0                       # Number of vector alu accesses
system.switch_cpus.num_vec_insts                    0                       # number of vector instructions
system.switch_cpus.num_vec_register_reads            0                       # number of times the vector registers were read
system.switch_cpus.num_vec_register_writes            0                       # number of times the vector registers were written
system.switch_cpus.op_class::No_OpClass             0                       # Class of executed instruction
system.switch_cpus.op_class::IntAlu                 0                       # Class of executed instruction
system.switch_cpus.op_class::IntMult                0                       # Class of executed instruction
system.switch_cpus.op_class::IntDiv                 0                       # Class of executed instruction
system.switch_cpus.op_class::FloatAdd               0                       # Class of executed instruction
system.switch_cpus.op_class::FloatCmp               0                       # Class of executed instruction
system.switch_cpus.op_class::FloatCvt               0                       # Class of executed instruction
system.switch_cpus.op_class::FloatMult              0                       # Class of executed instruction
system.switch_cpus.op_class::FloatMultAcc            0                       # Class of executed instruction
system.switch_cpus.op_class::FloatDiv               0                       # Class of executed instruction
system.switch_cpus.op_class::FloatMisc              0                       # Class of executed instruction
system.switch_cpus.op_class::FloatSqrt              0                       # Class of executed instruction
system.switch_cpus.op_class::SimdAdd                0                       # Class of executed instruction
system.switch_cpus.op_class::SimdAddAcc             0                       # Class of executed instruction
system.switch_cpus.op_class::SimdAlu                0                       # Class of executed instruction
system.switch_cpus.op_class::SimdCmp                0                       # Class of executed instruction
system.switch_cpus.op_class::SimdCvt                0                       # Class of executed instruction
system.switch_cpus.op_class::SimdMisc               0                       # Class of executed instruction
system.switch_cpus.op_class::SimdMult               0                       # Class of executed instruction
system.switch_cpus.op_class::SimdMultAcc            0                       # Class of executed instruction
system.switch_cpus.op_class::SimdShift              0                       # Class of executed instruction
system.switch_cpus.op_class::SimdShiftAcc            0                       # Class of executed instruction
system.switch_cpus.op_class::SimdDiv                0                       # Class of executed instruction
system.switch_cpus.op_class::SimdSqrt               0                       # Class of executed instruction
system.switch_cpus.op_class::SimdFloatAdd            0                       # Class of executed instruction
system.switch_cpus.op_class::SimdFloatAlu            0                       # Class of executed instruction
system.switch_cpus.op_class::SimdFloatCmp            0                       # Class of executed instruction
system.switch_cpus.op_class::SimdFloatCvt            0                       # Class of executed instruction
system.switch_cpus.op_class::SimdFloatDiv            0                       # Class of executed instruction
system.switch_cpus.op_class::SimdFloatMisc            0                       # Class of executed instruction
system.switch_cpus.op_class::SimdFloatMult            0                       # Class of executed instruction
system.switch_cpus.op_class::SimdFloatMultAcc            0                       # Class of executed instruction
system.switch_cpus.op_class::SimdFloatSqrt            0                       # Class of executed instruction
system.switch_cpus.op_class::SimdReduceAdd            0                       # Class of executed instruction
system.switch_cpus.op_class::SimdReduceAlu            0                       # Class of executed instruction
system.switch_cpus.op_class::SimdReduceCmp            0                       # Class of executed instruction
system.switch_cpus.op_class::SimdFloatReduceAdd            0                       # Class of executed instruction
system.switch_cpus.op_class::SimdFloatReduceCmp            0                       # Class of executed instruction
system.switch_cpus.op_class::SimdAes                0                       # Class of executed instruction
system.switch_cpus.op_class::SimdAesMix             0                       # Class of executed instruction
system.switch_cpus.op_class::SimdSha1Hash            0                       # Class of executed instruction
system.switch_cpus.op_class::SimdSha1Hash2            0                       # Class of executed instruction
system.switch_cpus.op_class::SimdSha256Hash            0                       # Class of executed instruction
system.switch_cpus.op_class::SimdSha256Hash2            0                       # Class of executed instruction
system.switch_cpus.op_class::SimdShaSigma2            0                       # Class of executed instruction
system.switch_cpus.op_class::SimdShaSigma3            0                       # Class of executed instruction
system.switch_cpus.op_class::SimdPredAlu            0                       # Class of executed instruction
system.switch_cpus.op_class::MemRead                0                       # Class of executed instruction
system.switch_cpus.op_class::MemWrite               0                       # Class of executed instruction
system.switch_cpus.op_class::FloatMemRead            0                       # Class of executed instruction
system.switch_cpus.op_class::FloatMemWrite            0                       # Class of executed instruction
system.switch_cpus.op_class::IprAccess              0                       # Class of executed instruction
system.switch_cpus.op_class::InstPrefetch            0                       # Class of executed instruction
system.switch_cpus.op_class::total                  0                       # Class of executed instruction
system.switch_cpus_1.branchPred.BTBCorrect            0                       # Number of correct BTB predictions (this stat may not work properly.
system.switch_cpus_1.branchPred.BTBHitPct          nan                       # BTB Hit Percentage
system.switch_cpus_1.branchPred.BTBHits             0                       # Number of BTB hits
system.switch_cpus_1.branchPred.BTBLookups            0                       # Number of BTB lookups
system.switch_cpus_1.branchPred.RASInCorrect            0                       # Number of incorrect RAS predictions.
system.switch_cpus_1.branchPred.condIncorrect        10539                       # Number of conditional branches incorrect
system.switch_cpus_1.branchPred.condPredicted      1270865                       # Number of conditional branches predicted
system.switch_cpus_1.branchPred.indirectHits      1257641                       # Number of indirect target hits.
system.switch_cpus_1.branchPred.indirectLookups      1257925                       # Number of indirect predictor lookups.
system.switch_cpus_1.branchPred.indirectMisses          284                       # Number of indirect misses.
system.switch_cpus_1.branchPred.lookups       1271053                       # Number of BP lookups
system.switch_cpus_1.branchPred.usedRAS             0                       # Number of times the RAS was used to get a target.
system.switch_cpus_1.branchPredindirectMispredicted           65                       # Number of mispredicted indirect branches.
system.switch_cpus_1.cc_regfile_reads         6288833                       # number of cc regfile reads
system.switch_cpus_1.cc_regfile_writes       38415475                       # number of cc regfile writes
system.switch_cpus_1.commit.amos                    0                       # Number of atomic instructions committed
system.switch_cpus_1.commit.branchMispredicts        10539                       # The number of times a branch was mispredicted
system.switch_cpus_1.commit.branches          1250333                       # Number of branches committed
system.switch_cpus_1.commit.bw_lim_events    115012985                       # number cycles where commit BW limit reached
system.switch_cpus_1.commit.commitSquashedInsts      1365978                       # The number of squashed insts skipped by commit
system.switch_cpus_1.commit.committedInsts   1000000001                       # Number of instructions committed
system.switch_cpus_1.commit.committedOps   1584747969                       # Number of ops (including micro ops) committed
system.switch_cpus_1.commit.committed_per_cycle::samples   1065416145                       # Number of insts commited each cycle
system.switch_cpus_1.commit.committed_per_cycle::mean     1.487445                       # Number of insts commited each cycle
system.switch_cpus_1.commit.committed_per_cycle::stdev     2.740039                       # Number of insts commited each cycle
system.switch_cpus_1.commit.committed_per_cycle::underflows            0      0.00%      0.00% # Number of insts commited each cycle
system.switch_cpus_1.commit.committed_per_cycle::0    748755906     70.28%     70.28% # Number of insts commited each cycle
system.switch_cpus_1.commit.committed_per_cycle::1     55059345      5.17%     75.45% # Number of insts commited each cycle
system.switch_cpus_1.commit.committed_per_cycle::2     31187521      2.93%     78.37% # Number of insts commited each cycle
system.switch_cpus_1.commit.committed_per_cycle::3     28266983      2.65%     81.03% # Number of insts commited each cycle
system.switch_cpus_1.commit.committed_per_cycle::4     26773234      2.51%     83.54% # Number of insts commited each cycle
system.switch_cpus_1.commit.committed_per_cycle::5     24387880      2.29%     85.83% # Number of insts commited each cycle
system.switch_cpus_1.commit.committed_per_cycle::6     18429620      1.73%     87.56% # Number of insts commited each cycle
system.switch_cpus_1.commit.committed_per_cycle::7     17542671      1.65%     89.20% # Number of insts commited each cycle
system.switch_cpus_1.commit.committed_per_cycle::8    115012985     10.80%    100.00% # Number of insts commited each cycle
system.switch_cpus_1.commit.committed_per_cycle::overflows            0      0.00%    100.00% # Number of insts commited each cycle
system.switch_cpus_1.commit.committed_per_cycle::min_value            0                       # Number of insts commited each cycle
system.switch_cpus_1.commit.committed_per_cycle::max_value            8                       # Number of insts commited each cycle
system.switch_cpus_1.commit.committed_per_cycle::total   1065416145                       # Number of insts commited each cycle
system.switch_cpus_1.commit.fp_insts       1452333629                       # Number of committed floating point instructions.
system.switch_cpus_1.commit.function_calls            0                       # Number of function calls committed.
system.switch_cpus_1.commit.int_insts       610441527                       # Number of committed integer instructions.
system.switch_cpus_1.commit.loads           430941180                       # Number of loads committed
system.switch_cpus_1.commit.membars                 0                       # Number of memory barriers committed
system.switch_cpus_1.commit.op_class_0::No_OpClass         5246      0.00%      0.00% # Class of committed instruction
system.switch_cpus_1.commit.op_class_0::IntAlu    341737212     21.56%     21.56% # Class of committed instruction
system.switch_cpus_1.commit.op_class_0::IntMult          301      0.00%     21.56% # Class of committed instruction
system.switch_cpus_1.commit.op_class_0::IntDiv            0      0.00%     21.56% # Class of committed instruction
system.switch_cpus_1.commit.op_class_0::FloatAdd    179881217     11.35%     32.92% # Class of committed instruction
system.switch_cpus_1.commit.op_class_0::FloatCmp            0      0.00%     32.92% # Class of committed instruction
system.switch_cpus_1.commit.op_class_0::FloatCvt            0      0.00%     32.92% # Class of committed instruction
system.switch_cpus_1.commit.op_class_0::FloatMult            0      0.00%     32.92% # Class of committed instruction
system.switch_cpus_1.commit.op_class_0::FloatMultAcc            0      0.00%     32.92% # Class of committed instruction
system.switch_cpus_1.commit.op_class_0::FloatDiv            0      0.00%     32.92% # Class of committed instruction
system.switch_cpus_1.commit.op_class_0::FloatMisc            0      0.00%     32.92% # Class of committed instruction
system.switch_cpus_1.commit.op_class_0::FloatSqrt            0      0.00%     32.92% # Class of committed instruction
system.switch_cpus_1.commit.op_class_0::SimdAdd            0      0.00%     32.92% # Class of committed instruction
system.switch_cpus_1.commit.op_class_0::SimdAddAcc            0      0.00%     32.92% # Class of committed instruction
system.switch_cpus_1.commit.op_class_0::SimdAlu     19397194      1.22%     34.14% # Class of committed instruction
system.switch_cpus_1.commit.op_class_0::SimdCmp            0      0.00%     34.14% # Class of committed instruction
system.switch_cpus_1.commit.op_class_0::SimdCvt            0      0.00%     34.14% # Class of committed instruction
system.switch_cpus_1.commit.op_class_0::SimdMisc            0      0.00%     34.14% # Class of committed instruction
system.switch_cpus_1.commit.op_class_0::SimdMult            0      0.00%     34.14% # Class of committed instruction
system.switch_cpus_1.commit.op_class_0::SimdMultAcc            0      0.00%     34.14% # Class of committed instruction
system.switch_cpus_1.commit.op_class_0::SimdShift            0      0.00%     34.14% # Class of committed instruction
system.switch_cpus_1.commit.op_class_0::SimdShiftAcc            0      0.00%     34.14% # Class of committed instruction
system.switch_cpus_1.commit.op_class_0::SimdDiv            0      0.00%     34.14% # Class of committed instruction
system.switch_cpus_1.commit.op_class_0::SimdSqrt            0      0.00%     34.14% # Class of committed instruction
system.switch_cpus_1.commit.op_class_0::SimdFloatAdd    287018074     18.11%     52.25% # Class of committed instruction
system.switch_cpus_1.commit.op_class_0::SimdFloatAlu            0      0.00%     52.25% # Class of committed instruction
system.switch_cpus_1.commit.op_class_0::SimdFloatCmp            0      0.00%     52.25% # Class of committed instruction
system.switch_cpus_1.commit.op_class_0::SimdFloatCvt            0      0.00%     52.25% # Class of committed instruction
system.switch_cpus_1.commit.op_class_0::SimdFloatDiv       605293      0.04%     52.29% # Class of committed instruction
system.switch_cpus_1.commit.op_class_0::SimdFloatMisc            0      0.00%     52.29% # Class of committed instruction
system.switch_cpus_1.commit.op_class_0::SimdFloatMult    211344662     13.34%     65.62% # Class of committed instruction
system.switch_cpus_1.commit.op_class_0::SimdFloatMultAcc            0      0.00%     65.62% # Class of committed instruction
system.switch_cpus_1.commit.op_class_0::SimdFloatSqrt            0      0.00%     65.62% # Class of committed instruction
system.switch_cpus_1.commit.op_class_0::SimdReduceAdd            0      0.00%     65.62% # Class of committed instruction
system.switch_cpus_1.commit.op_class_0::SimdReduceAlu            0      0.00%     65.62% # Class of committed instruction
system.switch_cpus_1.commit.op_class_0::SimdReduceCmp            0      0.00%     65.62% # Class of committed instruction
system.switch_cpus_1.commit.op_class_0::SimdFloatReduceAdd            0      0.00%     65.62% # Class of committed instruction
system.switch_cpus_1.commit.op_class_0::SimdFloatReduceCmp            0      0.00%     65.62% # Class of committed instruction
system.switch_cpus_1.commit.op_class_0::SimdAes            0      0.00%     65.62% # Class of committed instruction
system.switch_cpus_1.commit.op_class_0::SimdAesMix            0      0.00%     65.62% # Class of committed instruction
system.switch_cpus_1.commit.op_class_0::SimdSha1Hash            0      0.00%     65.62% # Class of committed instruction
system.switch_cpus_1.commit.op_class_0::SimdSha1Hash2            0      0.00%     65.62% # Class of committed instruction
system.switch_cpus_1.commit.op_class_0::SimdSha256Hash            0      0.00%     65.62% # Class of committed instruction
system.switch_cpus_1.commit.op_class_0::SimdSha256Hash2            0      0.00%     65.62% # Class of committed instruction
system.switch_cpus_1.commit.op_class_0::SimdShaSigma2            0      0.00%     65.62% # Class of committed instruction
system.switch_cpus_1.commit.op_class_0::SimdShaSigma3            0      0.00%     65.62% # Class of committed instruction
system.switch_cpus_1.commit.op_class_0::SimdPredAlu            0      0.00%     65.62% # Class of committed instruction
system.switch_cpus_1.commit.op_class_0::MemRead     56009894      3.53%     69.16% # Class of committed instruction
system.switch_cpus_1.commit.op_class_0::MemWrite     10716443      0.68%     69.84% # Class of committed instruction
system.switch_cpus_1.commit.op_class_0::FloatMemRead    374931286     23.66%     93.49% # Class of committed instruction
system.switch_cpus_1.commit.op_class_0::FloatMemWrite    103101147      6.51%    100.00% # Class of committed instruction
system.switch_cpus_1.commit.op_class_0::IprAccess            0      0.00%    100.00% # Class of committed instruction
system.switch_cpus_1.commit.op_class_0::InstPrefetch            0      0.00%    100.00% # Class of committed instruction
system.switch_cpus_1.commit.op_class_0::total   1584747969                       # Class of committed instruction
system.switch_cpus_1.commit.refs            544758770                       # Number of memory references committed
system.switch_cpus_1.commit.swp_count               0                       # Number of s/w prefetches committed
system.switch_cpus_1.commit.vec_insts               0                       # Number of committed Vector instructions.
system.switch_cpus_1.committedInsts        1000000001                       # Number of Instructions Simulated
system.switch_cpus_1.committedOps          1584747969                       # Number of Ops (including micro ops) Simulated
system.switch_cpus_1.cpi                     1.065607                       # CPI: Cycles Per Instruction
system.switch_cpus_1.cpi_total               1.065607                       # CPI: Total CPI of All Threads
system.switch_cpus_1.decode.BlockedCycles    750959557                       # Number of cycles decode is blocked
system.switch_cpus_1.decode.DecodedInsts   1586413044                       # Number of instructions handled by decode
system.switch_cpus_1.decode.IdleCycles       84974613                       # Number of cycles decode is idle
system.switch_cpus_1.decode.RunCycles       203728635                       # Number of cycles decode is running
system.switch_cpus_1.decode.SquashCycles        30017                       # Number of cycles decode is squashing
system.switch_cpus_1.decode.UnblockCycles     25913709                       # Number of cycles decode is unblocking
system.switch_cpus_1.dtb.rdAccesses         431376707                       # TLB accesses on read requests
system.switch_cpus_1.dtb.rdMisses               58867                       # TLB misses on read requests
system.switch_cpus_1.dtb.wrAccesses         113974997                       # TLB accesses on write requests
system.switch_cpus_1.dtb.wrMisses               38048                       # TLB misses on write requests
system.switch_cpus_1.fetch.Branches           1271053                       # Number of branches that fetch encountered
system.switch_cpus_1.fetch.CacheLines       101544313                       # Number of cache lines fetched
system.switch_cpus_1.fetch.Cycles           964021182                       # Number of cycles fetch has run and was not squashing or blocked
system.switch_cpus_1.fetch.IcacheSquashes         5157                       # Number of outstanding Icache misses that were squashed
system.switch_cpus_1.fetch.Insts           1001630842                       # Number of instructions fetch has processed
system.switch_cpus_1.fetch.SquashCycles         60034                       # Number of cycles fetch has spent squashing
system.switch_cpus_1.fetch.branchRate        0.001193                       # Number of branch fetches per cycle
system.switch_cpus_1.fetch.icacheStallCycles    101555382                       # Number of cycles fetch is stalled on an Icache miss
system.switch_cpus_1.fetch.predictedBranches      1257641                       # Number of branches that fetch has predicted taken
system.switch_cpus_1.fetch.rate              0.939963                       # Number of inst fetches per cycle
system.switch_cpus_1.fetch.rateDist::samples   1065606581                       # Number of instructions fetched each cycle (Total)
system.switch_cpus_1.fetch.rateDist::mean     1.489456                       # Number of instructions fetched each cycle (Total)
system.switch_cpus_1.fetch.rateDist::stdev     2.951128                       # Number of instructions fetched each cycle (Total)
system.switch_cpus_1.fetch.rateDist::underflows            0      0.00%      0.00% # Number of instructions fetched each cycle (Total)
system.switch_cpus_1.fetch.rateDist::0      818991582     76.86%     76.86% # Number of instructions fetched each cycle (Total)
system.switch_cpus_1.fetch.rateDist::1       20246675      1.90%     78.76% # Number of instructions fetched each cycle (Total)
system.switch_cpus_1.fetch.rateDist::2       14287308      1.34%     80.10% # Number of instructions fetched each cycle (Total)
system.switch_cpus_1.fetch.rateDist::3        7843268      0.74%     80.83% # Number of instructions fetched each cycle (Total)
system.switch_cpus_1.fetch.rateDist::4        8382601      0.79%     81.62% # Number of instructions fetched each cycle (Total)
system.switch_cpus_1.fetch.rateDist::5       14001896      1.31%     82.93% # Number of instructions fetched each cycle (Total)
system.switch_cpus_1.fetch.rateDist::6       13470939      1.26%     84.20% # Number of instructions fetched each cycle (Total)
system.switch_cpus_1.fetch.rateDist::7       16600858      1.56%     85.76% # Number of instructions fetched each cycle (Total)
system.switch_cpus_1.fetch.rateDist::8      151781454     14.24%    100.00% # Number of instructions fetched each cycle (Total)
system.switch_cpus_1.fetch.rateDist::overflows            0      0.00%    100.00% # Number of instructions fetched each cycle (Total)
system.switch_cpus_1.fetch.rateDist::min_value            0                       # Number of instructions fetched each cycle (Total)
system.switch_cpus_1.fetch.rateDist::max_value            8                       # Number of instructions fetched each cycle (Total)
system.switch_cpus_1.fetch.rateDist::total   1065606581                       # Number of instructions fetched each cycle (Total)
system.switch_cpus_1.fp_regfile_reads      2191736451                       # number of floating regfile reads
system.switch_cpus_1.fp_regfile_writes     1349855228                       # number of floating regfile writes
system.switch_cpus_1.iew.branchMispredicts        10631                       # Number of branch mispredicts detected at execute
system.switch_cpus_1.iew.exec_branches        1259897                       # Number of branches executed
system.switch_cpus_1.iew.exec_nop                   0                       # number of nop insts executed
system.switch_cpus_1.iew.exec_rate           1.514623                       # Inst execution rate
system.switch_cpus_1.iew.exec_refs          573505489                       # number of memory reference insts executed
system.switch_cpus_1.iew.exec_stores        113974997                       # Number of stores executed
system.switch_cpus_1.iew.exec_swp                   0                       # number of swp insts executed
system.switch_cpus_1.iew.iewBlockCycles      86759034                       # Number of cycles IEW is blocking
system.switch_cpus_1.iew.iewDispLoadInsts    431421222                       # Number of dispatched load instructions
system.switch_cpus_1.iew.iewDispNonSpecInsts            0                       # Number of dispatched non-speculative instructions
system.switch_cpus_1.iew.iewDispSquashedInsts          209                       # Number of squashed instructions skipped by dispatch
system.switch_cpus_1.iew.iewDispStoreInsts    114031606                       # Number of dispatched store instructions
system.switch_cpus_1.iew.iewDispatchedInsts   1586096054                       # Number of instructions dispatched to IQ
system.switch_cpus_1.iew.iewExecLoadInsts    459530492                       # Number of load instructions executed
system.switch_cpus_1.iew.iewExecSquashedInsts        56537                       # Number of squashed instructions skipped in execute
system.switch_cpus_1.iew.iewExecutedInsts   1613992212                       # Number of executed instructions
system.switch_cpus_1.iew.iewIQFullEvents      1809298                       # Number of times the IQ has become full, causing a stall
system.switch_cpus_1.iew.iewIdleCycles              0                       # Number of cycles IEW is idle
system.switch_cpus_1.iew.iewLSQFullEvents    170621137                       # Number of times the LSQ has become full, causing a stall
system.switch_cpus_1.iew.iewSquashCycles        30017                       # Number of cycles IEW is squashing
system.switch_cpus_1.iew.iewUnblockCycles    174193051                       # Number of cycles IEW is unblocking
system.switch_cpus_1.iew.lsq.thread0.blockedLoads            0                       # Number of blocked loads due to partial load-store forwarding
system.switch_cpus_1.iew.lsq.thread0.cacheBlocked      4228606                       # Number of times an access to memory failed due to the cache being blocked
system.switch_cpus_1.iew.lsq.thread0.forwLoads     27140624                       # Number of loads that had data forwarded from stores
system.switch_cpus_1.iew.lsq.thread0.ignoredResponses           50                       # Number of memory responses ignored because the instruction is squashed
system.switch_cpus_1.iew.lsq.thread0.invAddrLoads            0                       # Number of loads ignored due to an invalid address
system.switch_cpus_1.iew.lsq.thread0.invAddrSwpfs            0                       # Number of software prefetches ignored due to an invalid address
system.switch_cpus_1.iew.lsq.thread0.memOrderViolation        13517                       # Number of memory ordering violations
system.switch_cpus_1.iew.lsq.thread0.rescheduledLoads            0                       # Number of loads that were rescheduled
system.switch_cpus_1.iew.lsq.thread0.squashedLoads       480029                       # Number of loads squashed
system.switch_cpus_1.iew.lsq.thread0.squashedStores       214008                       # Number of stores squashed
system.switch_cpus_1.iew.memOrderViolationEvents        13517                       # Number of memory order violations
system.switch_cpus_1.iew.predictedNotTakenIncorrect          250                       # Number of branches that were predicted not taken incorrectly
system.switch_cpus_1.iew.predictedTakenIncorrect        10381                       # Number of branches that were predicted taken incorrectly
system.switch_cpus_1.iew.wb_consumers      1766341797                       # num instructions consuming a value
system.switch_cpus_1.iew.wb_count          1585755485                       # cumulative count of insts written-back
system.switch_cpus_1.iew.wb_fanout           0.628930                       # average fanout of values written-back
system.switch_cpus_1.iew.wb_producers      1110905201                       # num instructions producing a value
system.switch_cpus_1.iew.wb_rate             1.488125                       # insts written-back per cycle
system.switch_cpus_1.iew.wb_sent           1585788278                       # cumulative count of insts sent to commit
system.switch_cpus_1.int_regfile_reads     1199689245                       # number of integer regfile reads
system.switch_cpus_1.int_regfile_writes     120693210                       # number of integer regfile writes
system.switch_cpus_1.ipc                     0.938433                       # IPC: Instructions Per Cycle
system.switch_cpus_1.ipc_total               0.938433                       # IPC: Total IPC of All Threads
system.switch_cpus_1.iq.FU_type_0::No_OpClass         5297      0.00%      0.00% # Type of FU issued
system.switch_cpus_1.iq.FU_type_0::IntAlu    341903243     21.18%     21.18% # Type of FU issued
system.switch_cpus_1.iq.FU_type_0::IntMult          360      0.00%     21.18% # Type of FU issued
system.switch_cpus_1.iq.FU_type_0::IntDiv            0      0.00%     21.18% # Type of FU issued
system.switch_cpus_1.iq.FU_type_0::FloatAdd    180036462     11.15%     32.34% # Type of FU issued
system.switch_cpus_1.iq.FU_type_0::FloatCmp            0      0.00%     32.34% # Type of FU issued
system.switch_cpus_1.iq.FU_type_0::FloatCvt            0      0.00%     32.34% # Type of FU issued
system.switch_cpus_1.iq.FU_type_0::FloatMult            0      0.00%     32.34% # Type of FU issued
system.switch_cpus_1.iq.FU_type_0::FloatMultAcc            0      0.00%     32.34% # Type of FU issued
system.switch_cpus_1.iq.FU_type_0::FloatDiv            0      0.00%     32.34% # Type of FU issued
system.switch_cpus_1.iq.FU_type_0::FloatMisc            0      0.00%     32.34% # Type of FU issued
system.switch_cpus_1.iq.FU_type_0::FloatSqrt            0      0.00%     32.34% # Type of FU issued
system.switch_cpus_1.iq.FU_type_0::SimdAdd            0      0.00%     32.34% # Type of FU issued
system.switch_cpus_1.iq.FU_type_0::SimdAddAcc            0      0.00%     32.34% # Type of FU issued
system.switch_cpus_1.iq.FU_type_0::SimdAlu     19418914      1.20%     33.54% # Type of FU issued
system.switch_cpus_1.iq.FU_type_0::SimdCmp            0      0.00%     33.54% # Type of FU issued
system.switch_cpus_1.iq.FU_type_0::SimdCvt            0      0.00%     33.54% # Type of FU issued
system.switch_cpus_1.iq.FU_type_0::SimdMisc            0      0.00%     33.54% # Type of FU issued
system.switch_cpus_1.iq.FU_type_0::SimdMult            0      0.00%     33.54% # Type of FU issued
system.switch_cpus_1.iq.FU_type_0::SimdMultAcc            0      0.00%     33.54% # Type of FU issued
system.switch_cpus_1.iq.FU_type_0::SimdShift            0      0.00%     33.54% # Type of FU issued
system.switch_cpus_1.iq.FU_type_0::SimdShiftAcc            0      0.00%     33.54% # Type of FU issued
system.switch_cpus_1.iq.FU_type_0::SimdDiv            0      0.00%     33.54% # Type of FU issued
system.switch_cpus_1.iq.FU_type_0::SimdSqrt            0      0.00%     33.54% # Type of FU issued
system.switch_cpus_1.iq.FU_type_0::SimdFloatAdd    287108500     17.79%     51.33% # Type of FU issued
system.switch_cpus_1.iq.FU_type_0::SimdFloatAlu            0      0.00%     51.33% # Type of FU issued
system.switch_cpus_1.iq.FU_type_0::SimdFloatCmp            0      0.00%     51.33% # Type of FU issued
system.switch_cpus_1.iq.FU_type_0::SimdFloatCvt            0      0.00%     51.33% # Type of FU issued
system.switch_cpus_1.iq.FU_type_0::SimdFloatDiv       605293      0.04%     51.37% # Type of FU issued
system.switch_cpus_1.iq.FU_type_0::SimdFloatMisc            0      0.00%     51.37% # Type of FU issued
system.switch_cpus_1.iq.FU_type_0::SimdFloatMult    211427132     13.10%     64.47% # Type of FU issued
system.switch_cpus_1.iq.FU_type_0::SimdFloatMultAcc            0      0.00%     64.47% # Type of FU issued
system.switch_cpus_1.iq.FU_type_0::SimdFloatSqrt            0      0.00%     64.47% # Type of FU issued
system.switch_cpus_1.iq.FU_type_0::SimdReduceAdd            0      0.00%     64.47% # Type of FU issued
system.switch_cpus_1.iq.FU_type_0::SimdReduceAlu            0      0.00%     64.47% # Type of FU issued
system.switch_cpus_1.iq.FU_type_0::SimdReduceCmp            0      0.00%     64.47% # Type of FU issued
system.switch_cpus_1.iq.FU_type_0::SimdFloatReduceAdd            0      0.00%     64.47% # Type of FU issued
system.switch_cpus_1.iq.FU_type_0::SimdFloatReduceCmp            0      0.00%     64.47% # Type of FU issued
system.switch_cpus_1.iq.FU_type_0::SimdAes            0      0.00%     64.47% # Type of FU issued
system.switch_cpus_1.iq.FU_type_0::SimdAesMix            0      0.00%     64.47% # Type of FU issued
system.switch_cpus_1.iq.FU_type_0::SimdSha1Hash            0      0.00%     64.47% # Type of FU issued
system.switch_cpus_1.iq.FU_type_0::SimdSha1Hash2            0      0.00%     64.47% # Type of FU issued
system.switch_cpus_1.iq.FU_type_0::SimdSha256Hash            0      0.00%     64.47% # Type of FU issued
system.switch_cpus_1.iq.FU_type_0::SimdSha256Hash2            0      0.00%     64.47% # Type of FU issued
system.switch_cpus_1.iq.FU_type_0::SimdShaSigma2            0      0.00%     64.47% # Type of FU issued
system.switch_cpus_1.iq.FU_type_0::SimdShaSigma3            0      0.00%     64.47% # Type of FU issued
system.switch_cpus_1.iq.FU_type_0::SimdPredAlu            0      0.00%     64.47% # Type of FU issued
system.switch_cpus_1.iq.FU_type_0::MemRead     63457802      3.93%     68.40% # Type of FU issued
system.switch_cpus_1.iq.FU_type_0::MemWrite     10721675      0.66%     69.06% # Type of FU issued
system.switch_cpus_1.iq.FU_type_0::FloatMemRead    396102193     24.54%     93.60% # Type of FU issued
system.switch_cpus_1.iq.FU_type_0::FloatMemWrite    103261884      6.40%    100.00% # Type of FU issued
system.switch_cpus_1.iq.FU_type_0::IprAccess            0      0.00%    100.00% # Type of FU issued
system.switch_cpus_1.iq.FU_type_0::InstPrefetch            0      0.00%    100.00% # Type of FU issued
system.switch_cpus_1.iq.FU_type_0::total   1614048755                       # Type of FU issued
system.switch_cpus_1.iq.fp_alu_accesses    1487437756                       # Number of floating point alu accesses
system.switch_cpus_1.iq.fp_inst_queue_reads   2961516758                       # Number of floating instruction queue reads
system.switch_cpus_1.iq.fp_inst_queue_wakeup_accesses   1453083896                       # Number of floating instruction queue wakeup accesses
system.switch_cpus_1.iq.fp_inst_queue_writes   1454407143                       # Number of floating instruction queue writes
system.switch_cpus_1.iq.fu_busy_cnt          18389902                       # FU busy when requested
system.switch_cpus_1.iq.fu_busy_rate         0.011394                       # FU busy rate (busy events/executed inst)
system.switch_cpus_1.iq.fu_full::No_OpClass            0      0.00%      0.00% # attempts to use FU when none available
system.switch_cpus_1.iq.fu_full::IntAlu           787      0.00%      0.00% # attempts to use FU when none available
system.switch_cpus_1.iq.fu_full::IntMult            0      0.00%      0.00% # attempts to use FU when none available
system.switch_cpus_1.iq.fu_full::IntDiv             0      0.00%      0.00% # attempts to use FU when none available
system.switch_cpus_1.iq.fu_full::FloatAdd            0      0.00%      0.00% # attempts to use FU when none available
system.switch_cpus_1.iq.fu_full::FloatCmp            0      0.00%      0.00% # attempts to use FU when none available
system.switch_cpus_1.iq.fu_full::FloatCvt            0      0.00%      0.00% # attempts to use FU when none available
system.switch_cpus_1.iq.fu_full::FloatMult            0      0.00%      0.00% # attempts to use FU when none available
system.switch_cpus_1.iq.fu_full::FloatMultAcc            0      0.00%      0.00% # attempts to use FU when none available
system.switch_cpus_1.iq.fu_full::FloatDiv            0      0.00%      0.00% # attempts to use FU when none available
system.switch_cpus_1.iq.fu_full::FloatMisc            0      0.00%      0.00% # attempts to use FU when none available
system.switch_cpus_1.iq.fu_full::FloatSqrt            0      0.00%      0.00% # attempts to use FU when none available
system.switch_cpus_1.iq.fu_full::SimdAdd            0      0.00%      0.00% # attempts to use FU when none available
system.switch_cpus_1.iq.fu_full::SimdAddAcc            0      0.00%      0.00% # attempts to use FU when none available
system.switch_cpus_1.iq.fu_full::SimdAlu       152867      0.83%      0.84% # attempts to use FU when none available
system.switch_cpus_1.iq.fu_full::SimdCmp            0      0.00%      0.84% # attempts to use FU when none available
system.switch_cpus_1.iq.fu_full::SimdCvt            0      0.00%      0.84% # attempts to use FU when none available
system.switch_cpus_1.iq.fu_full::SimdMisc            0      0.00%      0.84% # attempts to use FU when none available
system.switch_cpus_1.iq.fu_full::SimdMult            0      0.00%      0.84% # attempts to use FU when none available
system.switch_cpus_1.iq.fu_full::SimdMultAcc            0      0.00%      0.84% # attempts to use FU when none available
system.switch_cpus_1.iq.fu_full::SimdShift            0      0.00%      0.84% # attempts to use FU when none available
system.switch_cpus_1.iq.fu_full::SimdShiftAcc            0      0.00%      0.84% # attempts to use FU when none available
system.switch_cpus_1.iq.fu_full::SimdDiv            0      0.00%      0.84% # attempts to use FU when none available
system.switch_cpus_1.iq.fu_full::SimdSqrt            0      0.00%      0.84% # attempts to use FU when none available
system.switch_cpus_1.iq.fu_full::SimdFloatAdd       490191      2.67%      3.50% # attempts to use FU when none available
system.switch_cpus_1.iq.fu_full::SimdFloatAlu            0      0.00%      3.50% # attempts to use FU when none available
system.switch_cpus_1.iq.fu_full::SimdFloatCmp            0      0.00%      3.50% # attempts to use FU when none available
system.switch_cpus_1.iq.fu_full::SimdFloatCvt            0      0.00%      3.50% # attempts to use FU when none available
system.switch_cpus_1.iq.fu_full::SimdFloatDiv            0      0.00%      3.50% # attempts to use FU when none available
system.switch_cpus_1.iq.fu_full::SimdFloatMisc            0      0.00%      3.50% # attempts to use FU when none available
system.switch_cpus_1.iq.fu_full::SimdFloatMult       254960      1.39%      4.89% # attempts to use FU when none available
system.switch_cpus_1.iq.fu_full::SimdFloatMultAcc            0      0.00%      4.89% # attempts to use FU when none available
system.switch_cpus_1.iq.fu_full::SimdFloatSqrt            0      0.00%      4.89% # attempts to use FU when none available
system.switch_cpus_1.iq.fu_full::SimdReduceAdd            0      0.00%      4.89% # attempts to use FU when none available
system.switch_cpus_1.iq.fu_full::SimdReduceAlu            0      0.00%      4.89% # attempts to use FU when none available
system.switch_cpus_1.iq.fu_full::SimdReduceCmp            0      0.00%      4.89% # attempts to use FU when none available
system.switch_cpus_1.iq.fu_full::SimdFloatReduceAdd            0      0.00%      4.89% # attempts to use FU when none available
system.switch_cpus_1.iq.fu_full::SimdFloatReduceCmp            0      0.00%      4.89% # attempts to use FU when none available
system.switch_cpus_1.iq.fu_full::SimdAes            0      0.00%      4.89% # attempts to use FU when none available
system.switch_cpus_1.iq.fu_full::SimdAesMix            0      0.00%      4.89% # attempts to use FU when none available
system.switch_cpus_1.iq.fu_full::SimdSha1Hash            0      0.00%      4.89% # attempts to use FU when none available
system.switch_cpus_1.iq.fu_full::SimdSha1Hash2            0      0.00%      4.89% # attempts to use FU when none available
system.switch_cpus_1.iq.fu_full::SimdSha256Hash            0      0.00%      4.89% # attempts to use FU when none available
system.switch_cpus_1.iq.fu_full::SimdSha256Hash2            0      0.00%      4.89% # attempts to use FU when none available
system.switch_cpus_1.iq.fu_full::SimdShaSigma2            0      0.00%      4.89% # attempts to use FU when none available
system.switch_cpus_1.iq.fu_full::SimdShaSigma3            0      0.00%      4.89% # attempts to use FU when none available
system.switch_cpus_1.iq.fu_full::SimdPredAlu            0      0.00%      4.89% # attempts to use FU when none available
system.switch_cpus_1.iq.fu_full::MemRead      4481480     24.37%     29.26% # attempts to use FU when none available
system.switch_cpus_1.iq.fu_full::MemWrite       545013      2.96%     32.22% # attempts to use FU when none available
system.switch_cpus_1.iq.fu_full::FloatMemRead     12280170     66.78%     99.00% # attempts to use FU when none available
system.switch_cpus_1.iq.fu_full::FloatMemWrite       184434      1.00%    100.00% # attempts to use FU when none available
system.switch_cpus_1.iq.fu_full::IprAccess            0      0.00%    100.00% # attempts to use FU when none available
system.switch_cpus_1.iq.fu_full::InstPrefetch            0      0.00%    100.00% # attempts to use FU when none available
system.switch_cpus_1.iq.int_alu_accesses    144995604                       # Number of integer alu accesses
system.switch_cpus_1.iq.int_inst_queue_reads   1350587029                       # Number of integer instruction queue reads
system.switch_cpus_1.iq.int_inst_queue_wakeup_accesses    132671589                       # Number of integer instruction queue wakeup accesses
system.switch_cpus_1.iq.int_inst_queue_writes    133050354                       # Number of integer instruction queue writes
system.switch_cpus_1.iq.iqInstsAdded       1586096054                       # Number of instructions added to the IQ (excludes non-spec)
system.switch_cpus_1.iq.iqInstsIssued      1614048755                       # Number of instructions issued
system.switch_cpus_1.iq.iqSquashedInstsExamined      1347964                       # Number of squashed instructions iterated over during squash; mainly for profiling
system.switch_cpus_1.iq.iqSquashedInstsIssued         9800                       # Number of squashed instructions issued
system.switch_cpus_1.iq.iqSquashedOperandsExamined      1003323                       # Number of squashed operands that are examined and possibly removed from graph
system.switch_cpus_1.iq.issued_per_cycle::samples   1065606581                       # Number of insts issued each cycle
system.switch_cpus_1.iq.issued_per_cycle::mean     1.514676                       # Number of insts issued each cycle
system.switch_cpus_1.iq.issued_per_cycle::stdev     2.340779                       # Number of insts issued each cycle
system.switch_cpus_1.iq.issued_per_cycle::underflows            0      0.00%      0.00% # Number of insts issued each cycle
system.switch_cpus_1.iq.issued_per_cycle::0    653951727     61.37%     61.37% # Number of insts issued each cycle
system.switch_cpus_1.iq.issued_per_cycle::1     69921317      6.56%     67.93% # Number of insts issued each cycle
system.switch_cpus_1.iq.issued_per_cycle::2     69026475      6.48%     74.41% # Number of insts issued each cycle
system.switch_cpus_1.iq.issued_per_cycle::3     50920248      4.78%     79.19% # Number of insts issued each cycle
system.switch_cpus_1.iq.issued_per_cycle::4     57190940      5.37%     84.55% # Number of insts issued each cycle
system.switch_cpus_1.iq.issued_per_cycle::5     50919882      4.78%     89.33% # Number of insts issued each cycle
system.switch_cpus_1.iq.issued_per_cycle::6     53858332      5.05%     94.39% # Number of insts issued each cycle
system.switch_cpus_1.iq.issued_per_cycle::7     31740698      2.98%     97.37% # Number of insts issued each cycle
system.switch_cpus_1.iq.issued_per_cycle::8     28076962      2.63%    100.00% # Number of insts issued each cycle
system.switch_cpus_1.iq.issued_per_cycle::overflows            0      0.00%    100.00% # Number of insts issued each cycle
system.switch_cpus_1.iq.issued_per_cycle::min_value            0                       # Number of insts issued each cycle
system.switch_cpus_1.iq.issued_per_cycle::max_value            8                       # Number of insts issued each cycle
system.switch_cpus_1.iq.issued_per_cycle::total   1065606581                       # Number of insts issued each cycle
system.switch_cpus_1.iq.rate                 1.514676                       # Inst issue rate
system.switch_cpus_1.iq.vec_alu_accesses            0                       # Number of vector alu accesses
system.switch_cpus_1.iq.vec_inst_queue_reads            0                       # Number of vector instruction queue reads
system.switch_cpus_1.iq.vec_inst_queue_wakeup_accesses            0                       # Number of vector instruction queue wakeup accesses
system.switch_cpus_1.iq.vec_inst_queue_writes            0                       # Number of vector instruction queue writes
system.switch_cpus_1.itb.rdAccesses                 0                       # TLB accesses on read requests
system.switch_cpus_1.itb.rdMisses                   0                       # TLB misses on read requests
system.switch_cpus_1.itb.wrAccesses         101544313                       # TLB accesses on write requests
system.switch_cpus_1.itb.wrMisses                   6                       # TLB misses on write requests
system.switch_cpus_1.memDep0.conflictingLoads      9739831                       # Number of conflicting loads.
system.switch_cpus_1.memDep0.conflictingStores      4113619                       # Number of conflicting stores.
system.switch_cpus_1.memDep0.insertedLoads    431421222                       # Number of loads inserted to the mem dependence unit.
system.switch_cpus_1.memDep0.insertedStores    114031606                       # Number of stores inserted to the mem dependence unit.
system.switch_cpus_1.misc_regfile_reads     600878038                       # number of misc regfile reads
system.switch_cpus_1.numCycles             1065606581                       # number of cpu cycles simulated
system.switch_cpus_1.numWorkItemsCompleted            0                       # number of work items this cpu completed
system.switch_cpus_1.numWorkItemsStarted            0                       # number of work items this cpu started
system.switch_cpus_1.rename.BlockCycles     276284153                       # Number of cycles rename is blocking
system.switch_cpus_1.rename.CommittedMaps   1508028936                       # Number of HB maps that are committed
system.switch_cpus_1.rename.IQFullEvents     32133106                       # Number of times rename has blocked due to IQ full
system.switch_cpus_1.rename.IdleCycles       96697944                       # Number of cycles rename is idle
system.switch_cpus_1.rename.LQFullEvents    217155563                       # Number of times rename has blocked due to LQ full
system.switch_cpus_1.rename.ROBFullEvents        81069                       # Number of times rename has blocked due to ROB full
system.switch_cpus_1.rename.RenameLookups   3915290969                       # Number of register rename lookups that rename has made
system.switch_cpus_1.rename.RenamedInsts   1586253788                       # Number of instructions processed by rename
system.switch_cpus_1.rename.RenamedOperands   1509353762                       # Number of destination operands rename has renamed
system.switch_cpus_1.rename.RunCycles       216859387                       # Number of cycles rename is running
system.switch_cpus_1.rename.SQFullEvents    230057383                       # Number of times rename has blocked due to SQ full
system.switch_cpus_1.rename.SquashCycles        30017                       # Number of cycles rename is squashing
system.switch_cpus_1.rename.UnblockCycles    475735031                       # Number of cycles rename is unblocking
system.switch_cpus_1.rename.UndoneMaps        1324699                       # Number of HB maps that are undone due to squashing
system.switch_cpus_1.rename.fp_rename_lookups   2192251859                       # Number of floating rename lookups
system.switch_cpus_1.rename.int_rename_lookups   1143804765                       # Number of integer rename lookups
system.switch_cpus_1.rename.serializeStallCycles            0                       # count of cycles rename stalled for serializing inst
system.switch_cpus_1.rename.serializingInsts            0                       # count of serializing insts renamed
system.switch_cpus_1.rename.skidInsts       161720366                       # count of insts added to the skid buffer
system.switch_cpus_1.rename.tempSerializingInsts            0                       # count of temporary serializing insts renamed
system.switch_cpus_1.rob.rob_reads         2536422753                       # The number of ROB reads
system.switch_cpus_1.rob.rob_writes        3172418574                       # The number of ROB writes
system.tol2bus.snoop_filter.hit_multi_requests            0                       # Number of requests hitting in the snoop filter with multiple (>1) holders of the requested data.
system.tol2bus.snoop_filter.hit_multi_snoops            0                       # Number of snoops hitting in the snoop filter with multiple (>1) holders of the requested data.
system.tol2bus.snoop_filter.hit_single_requests     14258687                       # Number of requests hitting in the snoop filter with a single holder of the requested data.
system.tol2bus.snoop_filter.hit_single_snoops        60558                       # Number of snoops hitting in the snoop filter with a single holder of the requested data.
system.tol2bus.snoop_filter.tot_requests     28481693                       # Total number of requests made to the snoop filter.
system.tol2bus.snoop_filter.tot_snoops          60558                       # Total number of snoops made to the snoop filter.
system.tol3bus.snoop_filter.hit_multi_requests            0                       # Number of requests hitting in the snoop filter with multiple (>1) holders of the requested data.
system.tol3bus.snoop_filter.hit_multi_snoops            0                       # Number of snoops hitting in the snoop filter with multiple (>1) holders of the requested data.
system.tol3bus.snoop_filter.hit_single_requests     13337253                       # Number of requests hitting in the snoop filter with a single holder of the requested data.
system.tol3bus.snoop_filter.hit_single_snoops       220731                       # Number of snoops hitting in the snoop filter with a single holder of the requested data.
system.tol3bus.snoop_filter.tot_requests     26674204                       # Total number of requests made to the snoop filter.
system.tol3bus.snoop_filter.tot_snoops         220731                       # Total number of snoops made to the snoop filter.
system.membus.trans_dist::ReadResp            3560626                       # Transaction distribution
system.membus.trans_dist::WritebackDirty      1475018                       # Transaction distribution
system.membus.trans_dist::CleanEvict          3545218                       # Transaction distribution
system.membus.trans_dist::ReadExReq           1459619                       # Transaction distribution
system.membus.trans_dist::ReadExResp          1459619                       # Transaction distribution
system.membus.trans_dist::ReadSharedReq       3560626                       # Transaction distribution
system.membus.pkt_count_system.l3.mem_side::system.mem_ctrls.port     15060726                       # Packet count per connected master and slave (bytes)
system.membus.pkt_count_system.l3.mem_side::total     15060726                       # Packet count per connected master and slave (bytes)
system.membus.pkt_count::total               15060726                       # Packet count per connected master and slave (bytes)
system.membus.pkt_size_system.l3.mem_side::system.mem_ctrls.port    415696832                       # Cumulative packet size per connected master and slave (bytes)
system.membus.pkt_size_system.l3.mem_side::total    415696832                       # Cumulative packet size per connected master and slave (bytes)
system.membus.pkt_size::total               415696832                       # Cumulative packet size per connected master and slave (bytes)
system.membus.snoops                                0                       # Total snoops (count)
system.membus.snoopTraffic                          0                       # Total snoop traffic (bytes)
system.membus.snoop_fanout::samples           5020245                       # Request fanout histogram
system.membus.snoop_fanout::mean                    0                       # Request fanout histogram
system.membus.snoop_fanout::stdev                   0                       # Request fanout histogram
system.membus.snoop_fanout::underflows              0      0.00%      0.00% # Request fanout histogram
system.membus.snoop_fanout::0                 5020245    100.00%    100.00% # Request fanout histogram
system.membus.snoop_fanout::1                       0      0.00%    100.00% # Request fanout histogram
system.membus.snoop_fanout::overflows               0      0.00%    100.00% # Request fanout histogram
system.membus.snoop_fanout::min_value               0                       # Request fanout histogram
system.membus.snoop_fanout::max_value               0                       # Request fanout histogram
system.membus.snoop_fanout::total             5020245                       # Request fanout histogram
system.membus.reqLayer2.occupancy         16927999000                       # Layer occupancy (ticks)
system.membus.reqLayer2.utilization               3.2                       # Layer utilization (%)
system.membus.respLayer1.occupancy        27471823750                       # Layer occupancy (ticks)
system.membus.respLayer1.utilization              5.2                       # Layer utilization (%)
system.membus.power_state.pwrStateResidencyTicks::UNDEFINED 1763684782000                       # Cumulative time (in ticks) in various power states
system.switch_cpus_1.dtb.walker.power_state.pwrStateResidencyTicks::UNDEFINED 1763684782000                       # Cumulative time (in ticks) in various power states
system.switch_cpus_1.itb.walker.power_state.pwrStateResidencyTicks::UNDEFINED 1763684782000                       # Cumulative time (in ticks) in various power states
system.switch_cpus_1.power_state.pwrStateResidencyTicks::OFF 1763684782000                       # Cumulative time (in ticks) in various power states
system.switch_cpus.dtb.walker.power_state.pwrStateResidencyTicks::UNDEFINED 1763684782000                       # Cumulative time (in ticks) in various power states
system.switch_cpus.itb.walker.power_state.pwrStateResidencyTicks::UNDEFINED 1763684782000                       # Cumulative time (in ticks) in various power states
system.switch_cpus.power_state.numTransitions            1                       # Number of power state transitions
system.switch_cpus.power_state.pwrStateResidencyTicks::OFF 1763684782000                       # Cumulative time (in ticks) in various power states
system.tol2bus.trans_dist::ReadResp          12058508                       # Transaction distribution
system.tol2bus.trans_dist::WritebackDirty      3669613                       # Transaction distribution
system.tol2bus.trans_dist::WritebackClean            7                       # Transaction distribution
system.tol2bus.trans_dist::CleanEvict        12243546                       # Transaction distribution
system.tol2bus.trans_dist::UpgradeReq           35681                       # Transaction distribution
system.tol2bus.trans_dist::UpgradeResp          35681                       # Transaction distribution
system.tol2bus.trans_dist::ReadExReq          2164498                       # Transaction distribution
system.tol2bus.trans_dist::ReadExResp         2164498                       # Transaction distribution
system.tol2bus.trans_dist::ReadCleanReq      12058508                       # Transaction distribution
system.tol2bus.pkt_count_system.cpu.icache.mem_side::system.l2.cpu_side           21                       # Packet count per connected master and slave (bytes)
system.tol2bus.pkt_count_system.cpu.dcache.mem_side::system.l2.cpu_side     42740359                       # Packet count per connected master and slave (bytes)
system.tol2bus.pkt_count::total              42740380                       # Packet count per connected master and slave (bytes)
system.tol2bus.pkt_size_system.cpu.icache.mem_side::system.l2.cpu_side          896                       # Cumulative packet size per connected master and slave (bytes)
system.tol2bus.pkt_size_system.cpu.dcache.mem_side::system.l2.cpu_side   1051084096                       # Cumulative packet size per connected master and slave (bytes)
system.tol2bus.pkt_size::total             1051084992                       # Cumulative packet size per connected master and slave (bytes)
system.tol2bus.snoops                         1690160                       # Total snoops (count)
system.tol2bus.snoopTraffic                  94043072                       # Total snoop traffic (bytes)
system.tol2bus.snoop_fanout::samples         15948847                       # Request fanout histogram
system.tol2bus.snoop_fanout::mean            0.003797                       # Request fanout histogram
system.tol2bus.snoop_fanout::stdev           0.061503                       # Request fanout histogram
system.tol2bus.snoop_fanout::underflows             0      0.00%      0.00% # Request fanout histogram
system.tol2bus.snoop_fanout::0               15888289     99.62%     99.62% # Request fanout histogram
system.tol2bus.snoop_fanout::1                  60558      0.38%    100.00% # Request fanout histogram
system.tol2bus.snoop_fanout::2                      0      0.00%    100.00% # Request fanout histogram
system.tol2bus.snoop_fanout::3                      0      0.00%    100.00% # Request fanout histogram
system.tol2bus.snoop_fanout::4                      0      0.00%    100.00% # Request fanout histogram
system.tol2bus.snoop_fanout::overflows              0      0.00%    100.00% # Request fanout histogram
system.tol2bus.snoop_fanout::min_value              0                       # Request fanout histogram
system.tol2bus.snoop_fanout::max_value              1                       # Request fanout histogram
system.tol2bus.snoop_fanout::total           15948847                       # Request fanout histogram
system.tol2bus.reqLayer0.occupancy        16441043500                       # Layer occupancy (ticks)
system.tol2bus.reqLayer0.utilization              3.1                       # Layer utilization (%)
system.tol2bus.respLayer1.occupancy       21352339000                       # Layer occupancy (ticks)
system.tol2bus.respLayer1.utilization             4.0                       # Layer utilization (%)
system.tol2bus.respLayer0.occupancy             10500                       # Layer occupancy (ticks)
system.tol2bus.respLayer0.utilization             0.0                       # Layer utilization (%)
system.tol2bus.power_state.pwrStateResidencyTicks::UNDEFINED 1763684782000                       # Cumulative time (in ticks) in various power states
system.voltage_domain.voltage                       1                       # Voltage in Volts
system.clk_domain.clock                          1000                       # Clock period in ticks
system.l2.demand_hits::.switch_cpus_1.data       886055                       # number of demand (read+write) hits
system.l2.demand_hits::total                   886055                       # number of demand (read+write) hits
system.l2.overall_hits::.switch_cpus_1.data       886055                       # number of overall hits
system.l2.overall_hits::total                  886055                       # number of overall hits
system.l2.demand_misses::.switch_cpus_1.inst            7                       # number of demand (read+write) misses
system.l2.demand_misses::.switch_cpus_1.data     13336944                       # number of demand (read+write) misses
system.l2.demand_misses::total               13336951                       # number of demand (read+write) misses
system.l2.overall_misses::.switch_cpus_1.inst            7                       # number of overall misses
system.l2.overall_misses::.switch_cpus_1.data     13336944                       # number of overall misses
system.l2.overall_misses::total              13336951                       # number of overall misses
system.l2.demand_miss_latency::.switch_cpus_1.inst       891000                       # number of demand (read+write) miss cycles
system.l2.demand_miss_latency::.switch_cpus_1.data 822107458500                       # number of demand (read+write) miss cycles
system.l2.demand_miss_latency::total     822108349500                       # number of demand (read+write) miss cycles
system.l2.overall_miss_latency::.switch_cpus_1.inst       891000                       # number of overall miss cycles
system.l2.overall_miss_latency::.switch_cpus_1.data 822107458500                       # number of overall miss cycles
system.l2.overall_miss_latency::total    822108349500                       # number of overall miss cycles
system.l2.demand_accesses::.switch_cpus_1.inst            7                       # number of demand (read+write) accesses
system.l2.demand_accesses::.switch_cpus_1.data     14222999                       # number of demand (read+write) accesses
system.l2.demand_accesses::total             14223006                       # number of demand (read+write) accesses
system.l2.overall_accesses::.switch_cpus_1.inst            7                       # number of overall (read+write) accesses
system.l2.overall_accesses::.switch_cpus_1.data     14222999                       # number of overall (read+write) accesses
system.l2.overall_accesses::total            14223006                       # number of overall (read+write) accesses
system.l2.demand_miss_rate::.switch_cpus_1.inst            1                       # miss rate for demand accesses
system.l2.demand_miss_rate::.switch_cpus_1.data     0.937703                       # miss rate for demand accesses
system.l2.demand_miss_rate::total            0.937703                       # miss rate for demand accesses
system.l2.overall_miss_rate::.switch_cpus_1.inst            1                       # miss rate for overall accesses
system.l2.overall_miss_rate::.switch_cpus_1.data     0.937703                       # miss rate for overall accesses
system.l2.overall_miss_rate::total           0.937703                       # miss rate for overall accesses
system.l2.demand_avg_miss_latency::.switch_cpus_1.inst 127285.714286                       # average overall miss latency
system.l2.demand_avg_miss_latency::.switch_cpus_1.data 61641.366905                       # average overall miss latency
system.l2.demand_avg_miss_latency::total 61641.401359                       # average overall miss latency
system.l2.overall_avg_miss_latency::.switch_cpus_1.inst 127285.714286                       # average overall miss latency
system.l2.overall_avg_miss_latency::.switch_cpus_1.data 61641.366905                       # average overall miss latency
system.l2.overall_avg_miss_latency::total 61641.401359                       # average overall miss latency
system.l2.blocked_cycles::no_mshrs                  0                       # number of cycles access was blocked
system.l2.blocked_cycles::no_targets                0                       # number of cycles access was blocked
system.l2.blocked::no_mshrs                         0                       # number of cycles access was blocked
[...]
system.cpu.dcache.demand_miss_latency::.switch_cpus_1.data 944819976032                       # number of demand (read+write) miss cycles
system.cpu.dcache.demand_miss_latency::total 986864292532                       # number of demand (read+write) miss cycles
system.cpu.dcache.overall_miss_latency::.switch_cpus.data  42044316500                       # number of overall miss cycles
system.cpu.dcache.overall_miss_latency::.switch_cpus_1.data 944819976032                       # number of overall miss cycles
system.cpu.dcache.overall_miss_latency::total 986864292532                       # number of overall miss cycles
system.cpu.dcache.demand_accesses::.cpu.data    413942220                       # number of demand (read+write) accesses
system.cpu.dcache.demand_accesses::.switch_cpus.data     27203636                       # number of demand (read+write) accesses
system.cpu.dcache.demand_accesses::.switch_cpus_1.data    518049353                       # number of demand (read+write) accesses
system.cpu.dcache.demand_accesses::total    959195209                       # number of demand (read+write) accesses
system.cpu.dcache.overall_accesses::.cpu.data    413942220                       # number of overall (read+write) accesses
system.cpu.dcache.overall_accesses::.switch_cpus.data     27203636                       # number of overall (read+write) accesses
system.cpu.dcache.overall_accesses::.switch_cpus_1.data    518049353                       # number of overall (read+write) accesses
system.cpu.dcache.overall_accesses::total    959195209                       # number of overall (read+write) accesses
system.cpu.dcache.demand_miss_rate::.cpu.data     0.053791                       # miss rate for demand accesses
system.cpu.dcache.demand_miss_rate::.switch_cpus.data     0.028924                       # miss rate for demand accesses
system.cpu.dcache.demand_miss_rate::.switch_cpus_1.data     0.033129                       # miss rate for demand accesses
system.cpu.dcache.demand_miss_rate::total     0.041927                       # miss rate for demand accesses
system.cpu.dcache.overall_miss_rate::.cpu.data     0.053791                       # miss rate for overall accesses
system.cpu.dcache.overall_miss_rate::.switch_cpus.data     0.028924                       # miss rate for overall accesses
system.cpu.dcache.overall_miss_rate::.switch_cpus_1.data     0.033129                       # miss rate for overall accesses
system.cpu.dcache.overall_miss_rate::total     0.041927                       # miss rate for overall accesses
system.cpu.dcache.demand_avg_miss_latency::.switch_cpus.data 53433.644362                       # average overall miss latency
system.cpu.dcache.demand_avg_miss_latency::.switch_cpus_1.data 55050.956952                       # average overall miss latency
system.cpu.dcache.demand_avg_miss_latency::total 24539.220672                       # average overall miss latency
system.cpu.dcache.overall_avg_miss_latency::.switch_cpus.data 53433.644362                       # average overall miss latency
system.cpu.dcache.overall_avg_miss_latency::.switch_cpus_1.data 55050.956952                       # average overall miss latency
system.cpu.dcache.overall_avg_miss_latency::total 24539.220672                       # average overall miss latency
system.cpu.dcache.blocked_cycles::no_mshrs    212513899                       # number of cycles access was blocked
system.cpu.dcache.blocked_cycles::no_targets            0                       # number of cycles access was blocked
system.cpu.dcache.blocked::no_mshrs           4423334                       # number of cycles access was blocked
system.cpu.dcache.blocked::no_targets               0                       # number of cycles access was blocked
system.cpu.dcache.avg_blocked_cycles::no_mshrs    48.043828                       # average number of cycles each access was blocked
system.cpu.dcache.avg_blocked_cycles::no_targets          nan                       # average number of cycles each access was blocked
system.cpu.dcache.writebacks::.writebacks     17725230                       # number of writebacks
system.cpu.dcache.writebacks::total          17725230                       # number of writebacks
system.cpu.dcache.demand_mshr_hits::.switch_cpus_1.data      2903966                       # number of demand (read+write) MSHR hits
system.cpu.dcache.demand_mshr_hits::total      2903966                       # number of demand (read+write) MSHR hits
system.cpu.dcache.overall_mshr_hits::.switch_cpus_1.data      2903966                       # number of overall MSHR hits
system.cpu.dcache.overall_mshr_hits::total      2903966                       # number of overall MSHR hits
system.cpu.dcache.demand_mshr_misses::.switch_cpus.data       786851                       # number of demand (read+write) MSHR misses
system.cpu.dcache.demand_mshr_misses::.switch_cpus_1.data     14258678                       # number of demand (read+write) MSHR misses
system.cpu.dcache.demand_mshr_misses::total     15045529                       # number of demand (read+write) MSHR misses
system.cpu.dcache.overall_mshr_misses::.switch_cpus.data       786851                       # number of overall MSHR misses
system.cpu.dcache.overall_mshr_misses::.switch_cpus_1.data     14258678                       # number of overall MSHR misses
system.cpu.dcache.overall_mshr_misses::total     15045529                       # number of overall MSHR misses
system.cpu.dcache.demand_mshr_miss_latency::.switch_cpus.data  41257465500                       # number of demand (read+write) MSHR miss cycles
system.cpu.dcache.demand_mshr_miss_latency::.switch_cpus_1.data 858333468032                       # number of demand (read+write) MSHR miss cycles
system.cpu.dcache.demand_mshr_miss_latency::total 899590933532                       # number of demand (read+write) MSHR miss cycles
system.cpu.dcache.overall_mshr_miss_latency::.switch_cpus.data  41257465500                       # number of overall MSHR miss cycles
system.cpu.dcache.overall_mshr_miss_latency::.switch_cpus_1.data 858333468032                       # number of overall MSHR miss cycles
system.cpu.dcache.overall_mshr_miss_latency::total 899590933532                       # number of overall MSHR miss cycles
system.cpu.dcache.demand_mshr_miss_rate::.switch_cpus.data     0.028924                       # mshr miss rate for demand accesses
system.cpu.dcache.demand_mshr_miss_rate::.switch_cpus_1.data     0.027524                       # mshr miss rate for demand accesses
system.cpu.dcache.demand_mshr_miss_rate::total     0.015686                       # mshr miss rate for demand accesses
system.cpu.dcache.overall_mshr_miss_rate::.switch_cpus.data     0.028924                       # mshr miss rate for overall accesses
system.cpu.dcache.overall_mshr_miss_rate::.switch_cpus_1.data     0.027524                       # mshr miss rate for overall accesses
system.cpu.dcache.overall_mshr_miss_rate::total     0.015686                       # mshr miss rate for overall accesses
system.cpu.dcache.demand_avg_mshr_miss_latency::.switch_cpus.data 52433.644362                       # average overall mshr miss latency
system.cpu.dcache.demand_avg_mshr_miss_latency::.switch_cpus_1.data 60197.268501                       # average overall mshr miss latency
system.cpu.dcache.demand_avg_mshr_miss_latency::total 59791.246525                       # average overall mshr miss latency
system.cpu.dcache.overall_avg_mshr_miss_latency::.switch_cpus.data 52433.644362                       # average overall mshr miss latency
system.cpu.dcache.overall_avg_mshr_miss_latency::.switch_cpus_1.data 60197.268501                       # average overall mshr miss latency
system.cpu.dcache.overall_avg_mshr_miss_latency::total 59791.246525                       # average overall mshr miss latency
system.cpu.dcache.replacements               37265515                       # number of replacements
system.cpu.dcache.ReadReq_hits::.cpu.data    284824486                       # number of ReadReq hits
system.cpu.dcache.ReadReq_hits::.switch_cpus.data     20899030                       # number of ReadReq hits
system.cpu.dcache.ReadReq_hits::.switch_cpus_1.data    389269302                       # number of ReadReq hits
system.cpu.dcache.ReadReq_hits::total       694992818                       # number of ReadReq hits
system.cpu.dcache.ReadReq_misses::.cpu.data      6897606                       # number of ReadReq misses
system.cpu.dcache.ReadReq_misses::.switch_cpus.data       630447                       # number of ReadReq misses
system.cpu.dcache.ReadReq_misses::.switch_cpus_1.data     14962465                       # number of ReadReq misses
system.cpu.dcache.ReadReq_misses::total      22490518                       # number of ReadReq misses
system.cpu.dcache.ReadReq_miss_latency::.switch_cpus.data  33487990500                       # number of ReadReq miss cycles
system.cpu.dcache.ReadReq_miss_latency::.switch_cpus_1.data 770786688000                       # number of ReadReq miss cycles
system.cpu.dcache.ReadReq_miss_latency::total 804274678500                       # number of ReadReq miss cycles
system.cpu.dcache.ReadReq_accesses::.cpu.data    291722092                       # number of ReadReq accesses(hits+misses)
system.cpu.dcache.ReadReq_accesses::.switch_cpus.data     21529477                       # number of ReadReq accesses(hits+misses)
system.cpu.dcache.ReadReq_accesses::.switch_cpus_1.data    404231767                       # number of ReadReq accesses(hits+misses)
system.cpu.dcache.ReadReq_accesses::total    717483336                       # number of ReadReq accesses(hits+misses)
system.cpu.dcache.ReadReq_miss_rate::.cpu.data     0.023644                       # miss rate for ReadReq accesses
system.cpu.dcache.ReadReq_miss_rate::.switch_cpus.data     0.029283                       # miss rate for ReadReq accesses
system.cpu.dcache.ReadReq_miss_rate::.switch_cpus_1.data     0.037015                       # miss rate for ReadReq accesses
system.cpu.dcache.ReadReq_miss_rate::total     0.031346                       # miss rate for ReadReq accesses
system.cpu.dcache.ReadReq_avg_miss_latency::.switch_cpus.data 53117.852095                       # average ReadReq miss latency
system.cpu.dcache.ReadReq_avg_miss_latency::.switch_cpus_1.data 51514.686116                       # average ReadReq miss latency
system.cpu.dcache.ReadReq_avg_miss_latency::total 35760.611583                       # average ReadReq miss latency
system.cpu.dcache.ReadReq_mshr_hits::.switch_cpus_1.data      2903964                       # number of ReadReq MSHR hits
system.cpu.dcache.ReadReq_mshr_hits::total      2903964                       # number of ReadReq MSHR hits
system.cpu.dcache.ReadReq_mshr_misses::.switch_cpus.data       630447                       # number of ReadReq MSHR misses
system.cpu.dcache.ReadReq_mshr_misses::.switch_cpus_1.data     12058501                       # number of ReadReq MSHR misses
system.cpu.dcache.ReadReq_mshr_misses::total     12688948                       # number of ReadReq MSHR misses
system.cpu.dcache.ReadReq_mshr_miss_latency::.switch_cpus.data  32857543500                       # number of ReadReq MSHR miss cycles
system.cpu.dcache.ReadReq_mshr_miss_latency::.switch_cpus_1.data 686500359000                       # number of ReadReq MSHR miss cycles
system.cpu.dcache.ReadReq_mshr_miss_latency::total 719357902500                       # number of ReadReq MSHR miss cycles
system.cpu.dcache.ReadReq_mshr_miss_rate::.switch_cpus.data     0.029283                       # mshr miss rate for ReadReq accesses
system.cpu.dcache.ReadReq_mshr_miss_rate::.switch_cpus_1.data     0.029831                       # mshr miss rate for ReadReq accesses
system.cpu.dcache.ReadReq_mshr_miss_rate::total     0.017685                       # mshr miss rate for ReadReq accesses
system.cpu.dcache.ReadReq_avg_mshr_miss_latency::.switch_cpus.data 52117.852095                       # average ReadReq mshr miss latency
system.cpu.dcache.ReadReq_avg_mshr_miss_latency::.switch_cpus_1.data 56930.820755                       # average ReadReq mshr miss latency
system.cpu.dcache.ReadReq_avg_mshr_miss_latency::total 56691.689689                       # average ReadReq mshr miss latency
system.cpu.dcache.WriteReq_hits::.cpu.data    106851433                       # number of WriteReq hits
system.cpu.dcache.WriteReq_hits::.switch_cpus.data      5517755                       # number of WriteReq hits
system.cpu.dcache.WriteReq_hits::.switch_cpus_1.data    111617407                       # number of WriteReq hits
system.cpu.dcache.WriteReq_hits::total      223986595                       # number of WriteReq hits
system.cpu.dcache.WriteReq_misses::.cpu.data     15368695                       # number of WriteReq misses
system.cpu.dcache.WriteReq_misses::.switch_cpus.data       156404                       # number of WriteReq misses
system.cpu.dcache.WriteReq_misses::.switch_cpus_1.data      2200179                       # number of WriteReq misses
system.cpu.dcache.WriteReq_misses::total     17725278                       # number of WriteReq misses
system.cpu.dcache.WriteReq_miss_latency::.switch_cpus.data   8556326000                       # number of WriteReq miss cycles
system.cpu.dcache.WriteReq_miss_latency::.switch_cpus_1.data 174033288032                       # number of WriteReq miss cycles
system.cpu.dcache.WriteReq_miss_latency::total 182589614032                       # number of WriteReq miss cycles
system.cpu.dcache.WriteReq_accesses::.cpu.data    122220128                       # number of WriteReq accesses(hits+misses)
system.cpu.dcache.WriteReq_accesses::.switch_cpus.data      5674159                       # number of WriteReq accesses(hits+misses)
system.cpu.dcache.WriteReq_accesses::.switch_cpus_1.data    113817586                       # number of WriteReq accesses(hits+misses)
system.cpu.dcache.WriteReq_accesses::total    241711873                       # number of WriteReq accesses(hits+misses)
system.cpu.dcache.WriteReq_miss_rate::.cpu.data     0.125746                       # miss rate for WriteReq accesses
system.cpu.dcache.WriteReq_miss_rate::.switch_cpus.data     0.027564                       # miss rate for WriteReq accesses
system.cpu.dcache.WriteReq_miss_rate::.switch_cpus_1.data     0.019331                       # miss rate for WriteReq accesses
system.cpu.dcache.WriteReq_miss_rate::total     0.073332                       # miss rate for WriteReq accesses
system.cpu.dcache.WriteReq_avg_miss_latency::.switch_cpus.data 54706.567607                       # average WriteReq miss latency
system.cpu.dcache.WriteReq_avg_miss_latency::.switch_cpus_1.data 79099.604183                       # average WriteReq miss latency
system.cpu.dcache.WriteReq_avg_miss_latency::total 10301.086055                       # average WriteReq miss latency
system.cpu.dcache.WriteReq_mshr_hits::.switch_cpus_1.data            2                       # number of WriteReq MSHR hits
system.cpu.dcache.WriteReq_mshr_hits::total            2                       # number of WriteReq MSHR hits
system.cpu.dcache.WriteReq_mshr_misses::.switch_cpus.data       156404                       # number of WriteReq MSHR misses
system.cpu.dcache.WriteReq_mshr_misses::.switch_cpus_1.data      2200177                       # number of WriteReq MSHR misses
system.cpu.dcache.WriteReq_mshr_misses::total      2356581                       # number of WriteReq MSHR misses
system.cpu.dcache.WriteReq_mshr_miss_latency::.switch_cpus.data   8399922000                       # number of WriteReq MSHR miss cycles
system.cpu.dcache.WriteReq_mshr_miss_latency::.switch_cpus_1.data 171833109032                       # number of WriteReq MSHR miss cycles
system.cpu.dcache.WriteReq_mshr_miss_latency::total 180233031032                       # number of WriteReq MSHR miss cycles
system.cpu.dcache.WriteReq_mshr_miss_rate::.switch_cpus.data     0.027564                       # mshr miss rate for WriteReq accesses
system.cpu.dcache.WriteReq_mshr_miss_rate::.switch_cpus_1.data     0.019331                       # mshr miss rate for WriteReq accesses
system.cpu.dcache.WriteReq_mshr_miss_rate::total     0.009750                       # mshr miss rate for WriteReq accesses
system.cpu.dcache.WriteReq_avg_mshr_miss_latency::.switch_cpus.data 53706.567607                       # average WriteReq mshr miss latency
system.cpu.dcache.WriteReq_avg_mshr_miss_latency::.switch_cpus_1.data 78099.675177                       # average WriteReq mshr miss latency
system.cpu.dcache.WriteReq_avg_mshr_miss_latency::total 76480.728238                       # average WriteReq mshr miss latency
system.cpu.dcache.power_state.pwrStateResidencyTicks::UNDEFINED 1763684782000                       # Cumulative time (in ticks) in various power states
system.cpu.dcache.tags.tagsinuse           511.993821                       # Cycle average of tags in use
system.cpu.dcache.tags.total_refs           956302524                       # Total number of references to valid blocks.
system.cpu.dcache.tags.sampled_refs          37266027                       # Sample count of references to valid blocks.
system.cpu.dcache.tags.avg_refs             25.661510                       # Average number of references to valid blocks.
system.cpu.dcache.tags.warmup_cycle              1500                       # Cycle when the warmup percentage was hit.
system.cpu.dcache.tags.occ_blocks::.cpu.data   313.479236                       # Average occupied blocks per requestor
system.cpu.dcache.tags.occ_blocks::.switch_cpus.data    43.877548                       # Average occupied blocks per requestor
system.cpu.dcache.tags.occ_blocks::.switch_cpus_1.data   154.637037                       # Average occupied blocks per requestor
system.cpu.dcache.tags.occ_percent::.cpu.data     0.612264                       # Average percentage of cache occupancy
system.cpu.dcache.tags.occ_percent::.switch_cpus.data     0.085698                       # Average percentage of cache occupancy
system.cpu.dcache.tags.occ_percent::.switch_cpus_1.data     0.302025                       # Average percentage of cache occupancy
system.cpu.dcache.tags.occ_percent::total     0.999988                       # Average percentage of cache occupancy
system.cpu.dcache.tags.occ_task_id_blocks::1024          512                       # Occupied blocks per task id
system.cpu.dcache.tags.age_task_id_blocks_1024::0          132                       # Occupied blocks per task id
system.cpu.dcache.tags.age_task_id_blocks_1024::1          349                       # Occupied blocks per task id
system.cpu.dcache.tags.age_task_id_blocks_1024::2           24                       # Occupied blocks per task id
system.cpu.dcache.tags.age_task_id_blocks_1024::3            7                       # Occupied blocks per task id
system.cpu.dcache.tags.occ_task_id_percent::1024            1                       # Percentage of cache occupancy per task id
system.cpu.dcache.tags.tag_accesses        3874046863                       # Number of tag accesses
system.cpu.dcache.tags.data_accesses       3874046863                       # Number of data accesses
system.cpu.dcache.tags.power_state.pwrStateResidencyTicks::UNDEFINED 1763684782000                       # Cumulative time (in ticks) in various power states
system.cpu.power_state.numTransitions               2                       # Number of power state transitions
system.cpu.power_state.pwrStateResidencyTicks::ON 1078753465000                       # Cumulative time (in ticks) in various power states
system.cpu.power_state.pwrStateResidencyTicks::OFF 684931317000                       # Cumulative time (in ticks) in various power states

---------- End Simulation Statistics   ----------
