
---------- Begin Simulation Statistics ----------
final_tick                               1514528125000                       # Number of ticks from beginning of simulation (restored from checkpoints and never reset)
host_inst_rate                                 252222                       # Simulator instruction rate (inst/s)
host_mem_usage                                4543656                       # Number of bytes of host memory used
host_op_rate                                   427446                       # Simulator op (including micro ops) rate (op/s)
host_seconds                                  5550.01                       # Real time elapsed on the host
host_tick_rate                               66045692                       # Simulator tick rate (ticks/s)
sim_freq                                 1000000000000                       # Frequency of simulated ticks
sim_insts                                  1399837585                       # Number of instructions simulated
sim_ops                                    2372328795                       # Number of ops (including micro ops) simulated
sim_seconds                                  0.366554                       # Number of seconds simulated
sim_ticks                                366554464000                       # Number of ticks simulated
system.cpu.committedInsts                           0                       # Number of instructions committed
system.cpu.committedOps                             0                       # Number of ops (including micro ops) committed
system.cpu.dtb.rdAccesses                           0                       # TLB accesses on read requests
system.cpu.dtb.rdMisses                             0                       # TLB misses on read requests
system.cpu.dtb.wrAccesses                           0                       # TLB accesses on write requests
system.cpu.dtb.wrMisses                             0                       # TLB misses on write requests
system.cpu.idle_fraction                            0                       # Percentage of idle cycles
system.cpu.itb.rdAccesses                           0                       # TLB accesses on read requests
system.cpu.itb.rdMisses                             0                       # TLB misses on read requests
system.cpu.itb.wrAccesses                           0                       # TLB accesses on write requests
system.cpu.itb.wrMisses                             0                       # TLB misses on write requests
system.cpu.not_idle_fraction                        1                       # Percentage of non-idle cycles
system.cpu.numCycles                                0                       # number of cpu cycles simulated
system.cpu.numWorkItemsCompleted                    0                       # number of work items this cpu completed
system.cpu.numWorkItemsStarted                      0                       # number of work items this cpu started
system.cpu.num_busy_cycles                          0                       # Number of busy cycles
system.cpu.num_conditional_control_insts            0                       # number of instructions that are conditional controls
system.cpu.num_fp_alu_accesses                      0                       # Number of float alu accesses
system.cpu.num_fp_insts                             0                       # number of float instructions
system.cpu.num_fp_register_reads                    0                       # number of times the floating registers were read
system.cpu.num_fp_register_writes                   0                       # number of times the floating registers were written
system.cpu.num_func_calls                           0                       # number of times a function call or return occured
system.cpu.num_idle_cycles                          0                       # Number of idle cycles
system.cpu.num_int_alu_accesses                     0                       # Number of integer alu accesses
system.cpu.num_int_insts                            0                       # number of integer instructions
system.cpu.num_int_register_reads                   0                       # number of times the integer registers were read
system.cpu.num_int_register_writes                  0                       # number of times the integer registers were written
system.cpu.num_load_insts                           0                       # Number of load instructions
system.cpu.num_mem_refs                             0                       # number of memory refs
system.cpu.num_store_insts                          0                       # Number of store instructions
system.cpu.num_vec_alu_accesses                     0                       # Number of vector alu accesses
system.cpu.num_vec_insts                            0                       # number of vector instructions
system.cpu.num_vec_register_reads                   0                       # number of times the vector registers were read
system.cpu.num_vec_register_writes                  0                       # number of times the vector registers were written
system.cpu.op_class::No_OpClass                     0                       # Class of executed instruction
system.cpu.op_class::IntAlu                         0                       # Class of executed instruction
system.cpu.op_class::IntMult                        0                       # Class of executed instruction
system.cpu.op_class::IntDiv                         0                       # Class of executed instruction
system.cpu.op_class::FloatAdd                       0                       # Class of executed instruction
system.cpu.op_class::FloatCmp                       0                       # Class of executed instruction
system.cpu.op_class::FloatCvt                       0                       # Class of executed instruction
system.cpu.op_class::FloatMult                      0                       # Class of executed instruction
system.cpu.op_class::FloatMultAcc                   0                       # Class of executed instruction
system.cpu.op_class::FloatDiv                       0                       # Class of executed instruction
system.cpu.op_class::FloatMisc                      0                       # Class of executed instruction
system.cpu.op_class::FloatSqrt                      0                       # Class of executed instruction
system.cpu.op_class::SimdAdd                        0                       # Class of executed instruction
system.cpu.op_class::SimdAddAcc                     0                       # Class of executed instruction
system.cpu.op_class::SimdAlu                        0                       # Class of executed instruction
system.cpu.op_class::SimdCmp                        0                       # Class of executed instruction
system.cpu.op_class::SimdCvt                        0                       # Class of executed instruction
system.cpu.op_class::SimdMisc                       0                       # Class of executed instruction
system.cpu.op_class::SimdMult                       0                       # Class of executed instruction
system.cpu.op_class::SimdMultAcc                    0                       # Class of executed instruction
system.cpu.op_class::SimdShift                      0                       # Class of executed instruction
system.cpu.op_class::SimdShiftAcc                   0                       # Class of executed instruction
system.cpu.op_class::SimdDiv                        0                       # Class of executed instruction
system.cpu.op_class::SimdSqrt                       0                       # Class of executed instruction
system.cpu.op_class::SimdFloatAdd                   0                       # Class of executed instruction
system.cpu.op_class::SimdFloatAlu                   0                       # Class of executed instruction
system.cpu.op_class::SimdFloatCmp                   0                       # Class of executed instruction
system.cpu.op_class::SimdFloatCvt                   0                       # Class of executed instruction
system.cpu.op_class::SimdFloatDiv                   0                       # Class of executed instruction
system.cpu.op_class::SimdFloatMisc                  0                       # Class of executed instruction
system.cpu.op_class::SimdFloatMult                  0                       # Class of executed instruction
system.cpu.op_class::SimdFloatMultAcc               0                       # Class of executed instruction
system.cpu.op_class::SimdFloatSqrt                  0                       # Class of executed instruction
system.cpu.op_class::SimdReduceAdd                  0                       # Class of executed instruction
system.cpu.op_class::SimdReduceAlu                  0                       # Class of executed instruction
system.cpu.op_class::SimdReduceCmp                  0                       # Class of executed instruction
system.cpu.op_class::SimdFloatReduceAdd             0                       # Class of executed instruction
system.cpu.op_class::SimdFloatReduceCmp             0                       # Class of executed instruction
system.cpu.op_class::SimdAes                        0                       # Class of executed instruction
system.cpu.op_class::SimdAesMix                     0                       # Class of executed instruction
system.cpu.op_class::SimdSha1Hash                   0                       # Class of executed instruction
system.cpu.op_class::SimdSha1Hash2                  0                       # Class of executed instruction
system.cpu.op_class::SimdSha256Hash                 0                       # Class of executed instruction
system.cpu.op_class::SimdSha256Hash2                0                       # Class of executed instruction
system.cpu.op_class::SimdShaSigma2                  0                       # Class of executed instruction
system.cpu.op_class::SimdShaSigma3                  0                       # Class of executed instruction
system.cpu.op_class::SimdPredAlu                    0                       # Class of executed instruction
system.cpu.op_class::MemRead                        0                       # Class of executed instruction
system.cpu.op_class::MemWrite                       0                       # Class of executed instruction
system.cpu.op_class::FloatMemRead                   0                       # Class of executed instruction
system.cpu.op_class::FloatMemWrite                  0                       # Class of executed instruction
system.cpu.op_class::IprAccess                      0                       # Class of executed instruction
system.cpu.op_class::InstPrefetch                   0                       # Class of executed instruction
system.cpu.op_class::total                          0                       # Class of executed instruction
system.cpu.workload.numSyscalls                     6                       # Number of system calls
system.membus.snoop_filter.hit_multi_requests            0                       # Number of requests hitting in the snoop filter with multiple (>1) holders of the requested data.
system.membus.snoop_filter.hit_multi_snoops            0                       # Number of snoops hitting in the snoop filter with multiple (>1) holders of the requested data.
system.membus.snoop_filter.hit_single_requests      2377157                       # Number of requests hitting in the snoop filter with a single holder of the requested data.
system.membus.snoop_filter.hit_single_snoops            0                       # Number of snoops hitting in the snoop filter with a single holder of the requested data.
system.membus.snoop_filter.tot_requests       4753861                       # Total number of requests made to the snoop filter.
system.membus.snoop_filter.tot_snoops               0                       # Total number of snoops made to the snoop filter.
system.switch_cpus.committedInsts                   0                       # Number of instructions committed
system.switch_cpus.committedOps                     0                       # Number of ops (including micro ops) committed
system.switch_cpus.dtb.rdAccesses                   0                       # TLB accesses on read requests
system.switch_cpus.dtb.rdMisses                     0                       # TLB misses on read requests
system.switch_cpus.dtb.wrAccesses                   0                       # TLB accesses on write requests
system.switch_cpus.dtb.wrMisses                     0                       # TLB misses on write requests
system.switch_cpus.idle_fraction                    0                       # Percentage of idle cycles
system.switch_cpus.itb.rdAccesses                   0                       # TLB accesses on read requests
system.switch_cpus.itb.rdMisses                     0                       # TLB misses on read requests
system.switch_cpus.itb.wrAccesses                   0                       # TLB accesses on write requests
system.switch_cpus.itb.wrMisses                     0                       # TLB misses on write requests
system.switch_cpus.not_idle_fraction                1                       # Percentage of non-idle cycles
system.switch_cpus.numCycles                        0                       # number of cpu cycles simulated
system.switch_cpus.numWorkItemsCompleted            0                       # number of work items this cpu completed
system.switch_cpus.numWorkItemsStarted              0                       # number of work items this cpu started
system.switch_cpus.num_busy_cycles                  0                       # Number of busy cycles
system.switch_cpus.num_conditional_control_insts            0                       # number of instructions that are conditional controls
system.switch_cpus.num_fp_alu_accesses              0                       # Number of float alu accesses
system.switch_cpus.num_fp_insts                     0                       # number of float instructions
system.switch_cpus.num_fp_register_reads            0                       # number of times the floating registers were read
system.switch_cpus.num_fp_register_writes            0                       # number of times the floating registers were written
system.switch_cpus.num_func_calls                   0                       # number of times a function call or return occured
system.switch_cpus.num_idle_cycles                  0                       # Number of idle cycles
system.switch_cpus.num_int_alu_accesses             0                       # Number of integer alu accesses
system.switch_cpus.num_int_insts                    0                       # number of integer instructions
system.switch_cpus.num_int_register_reads            0                       # number of times the integer registers were read
system.switch_cpus.num_int_register_writes            0                       # number of times the integer registers were written
system.switch_cpus.num_load_insts                   0                       # Number of load instructions
system.switch_cpus.num_mem_refs                     0                       # number of memory refs
system.switch_cpus.num_store_insts                  0                       # Number of store instructions
system.switch_cpus.num_vec_alu_accesses             0                       # Number of vector alu accesses
system.switch_cpus.num_vec_insts                    0                       # number of vector instructions
system.switch_cpus.num_vec_register_reads            0                       # number of times the vector registers were read
system.switch_cpus.num_vec_register_writes            0                       # number of times the vector registers were written
system.switch_cpus.op_class::No_OpClass             0                       # Class of executed instruction
system.switch_cpus.op_class::IntAlu                 0                       # Class of executed instruction
system.switch_cpus.op_class::IntMult                0                       # Class of executed instruction
system.switch_cpus.op_class::IntDiv                 0                       # Class of executed instruction
system.switch_cpus.op_class::FloatAdd               0                       # Class of executed instruction
system.switch_cpus.op_class::FloatCmp               0                       # Class of executed instruction
system.switch_cpus.op_class::FloatCvt               0                       # Class of executed instruction
system.switch_cpus.op_class::FloatMult              0                       # Class of executed instruction
system.switch_cpus.op_class::FloatMultAcc            0                       # Class of executed instruction
system.switch_cpus.op_class::FloatDiv               0                       # Class of executed instruction
system.switch_cpus.op_class::FloatMisc              0                       # Class of executed instruction
system.switch_cpus.op_class::FloatSqrt              0                       # Class of executed instruction
system.switch_cpus.op_class::SimdAdd                0                       # Class of executed instruction
system.switch_cpus.op_class::SimdAddAcc             0                       # Class of executed instruction
system.switch_cpus.op_class::SimdAlu                0                       # Class of executed instruction
system.switch_cpus.op_class::SimdCmp                0                       # Class of executed instruction
system.switch_cpus.op_class::SimdCvt                0                       # Class of executed instruction
system.switch_cpus.op_class::SimdMisc               0                       # Class of executed instruction
system.switch_cpus.op_class::SimdMult               0                       # Class of executed instruction
system.switch_cpus.op_class::SimdMultAcc            0                       # Class of executed instruction
system.switch_cpus.op_class::SimdShift              0                       # Class of executed instruction
system.switch_cpus.op_class::SimdShiftAcc            0                       # Class of executed instruction
system.switch_cpus.op_class::SimdDiv                0                       # Class of executed instruction
system.switch_cpus.op_class::SimdSqrt               0                       # Class of executed instruction
system.switch_cpus.op_class::SimdFloatAdd            0                       # Class of executed instruction
system.switch_cpus.op_class::SimdFloatAlu            0                       # Class of executed instruction
system.switch_cpus.op_class::SimdFloatCmp            0                       # Class of executed instruction
system.switch_cpus.op_class::SimdFloatCvt            0                       # Class of executed instruction
system.switch_cpus.op_class::SimdFloatDiv            0                       # Class of executed instruction
system.switch_cpus.op_class::SimdFloatMisc            0                       # Class of executed instruction
system.switch_cpus.op_class::SimdFloatMult            0                       # Class of executed instruction
system.switch_cpus.op_class::SimdFloatMultAcc            0                       # Class of executed instruction
system.switch_cpus.op_class::SimdFloatSqrt            0                       # Class of executed instruction
system.switch_cpus.op_class::SimdReduceAdd            0                       # Class of executed instruction
system.switch_cpus.op_class::SimdReduceAlu            0                       # Class of executed instruction
system.switch_cpus.op_class::SimdReduceCmp            0                       # Class of executed instruction
system.switch_cpus.op_class::SimdFloatReduceAdd            0                       # Class of executed instruction
system.switch_cpus.op_class::SimdFloatReduceCmp            0                       # Class of executed instruction
system.switch_cpus.op_class::SimdAes                0                       # Class of executed instruction
system.switch_cpus.op_class::SimdAesMix             0                       # Class of executed instruction
system.switch_cpus.op_class::SimdSha1Hash            0                       # Class of executed instruction
system.switch_cpus.op_class::SimdSha1Hash2            0                       # Class of executed instruction
system.switch_cpus.op_class::SimdSha256Hash            0                       # Class of executed instruction
system.switch_cpus.op_class::SimdSha256Hash2            0                       # Class of executed instruction
system.switch_cpus.op_class::SimdShaSigma2            0                       # Class of executed instruction
system.switch_cpus.op_class::SimdShaSigma3            0                       # Class of executed instruction
system.switch_cpus.op_class::SimdPredAlu            0                       # Class of executed instruction
system.switch_cpus.op_class::MemRead                0                       # Class of executed instruction
system.switch_cpus.op_class::MemWrite               0                       # Class of executed instruction
system.switch_cpus.op_class::FloatMemRead            0                       # Class of executed instruction
system.switch_cpus.op_class::FloatMemWrite            0                       # Class of executed instruction
system.switch_cpus.op_class::IprAccess              0                       # Class of executed instruction
system.switch_cpus.op_class::InstPrefetch            0                       # Class of executed instruction
system.switch_cpus.op_class::total                  0                       # Class of executed instruction
system.switch_cpus_1.branchPred.BTBCorrect            0                       # Number of correct BTB predictions (this stat may not work properly.
system.switch_cpus_1.branchPred.BTBHitPct          nan                       # BTB Hit Percentage
system.switch_cpus_1.branchPred.BTBHits             0                       # Number of BTB hits
system.switch_cpus_1.branchPred.BTBLookups            0                       # Number of BTB lookups
system.switch_cpus_1.branchPred.RASInCorrect           23                       # Number of incorrect RAS predictions.
system.switch_cpus_1.branchPred.condIncorrect     11041217                       # Number of conditional branches incorrect
system.switch_cpus_1.branchPred.condPredicted    117822774                       # Number of conditional branches predicted
system.switch_cpus_1.branchPred.indirectHits     38519620                       # Number of indirect target hits.
system.switch_cpus_1.branchPred.indirectLookups     64605300                       # Number of indirect predictor lookups.
system.switch_cpus_1.branchPred.indirectMisses     26085680                       # Number of indirect misses.
system.switch_cpus_1.branchPred.lookups     125319817                       # Number of BP lookups
system.switch_cpus_1.branchPred.usedRAS       2644580                       # Number of times the RAS was used to get a target.
system.switch_cpus_1.branchPredindirectMispredicted      6164005                       # Number of mispredicted indirect branches.
system.switch_cpus_1.cc_regfile_reads       362371242                       # number of cc regfile reads
system.switch_cpus_1.cc_regfile_writes      314732332                       # number of cc regfile writes
system.switch_cpus_1.commit.amos                    0                       # Number of atomic instructions committed
system.switch_cpus_1.commit.branchMispredicts     11041808                       # The number of times a branch was mispredicted
system.switch_cpus_1.commit.branches         57167651                       # Number of branches committed
system.switch_cpus_1.commit.bw_lim_events     34420427                       # number cycles where commit BW limit reached
system.switch_cpus_1.commit.commitNonSpecStalls            6                       # The number of times commit has been forced to stall to communicate backwards
system.switch_cpus_1.commit.commitSquashedInsts    425668682                       # The number of squashed insts skipped by commit
system.switch_cpus_1.commit.committedInsts    349837583                       # Number of instructions committed
system.switch_cpus_1.commit.committedOps    591390416                       # Number of ops (including micro ops) committed
system.switch_cpus_1.commit.committed_per_cycle::samples    669895074                       # Number of insts commited each cycle
system.switch_cpus_1.commit.committed_per_cycle::mean     0.882811                       # Number of insts commited each cycle
system.switch_cpus_1.commit.committed_per_cycle::stdev     2.010181                       # Number of insts commited each cycle
system.switch_cpus_1.commit.committed_per_cycle::underflows            0      0.00%      0.00% # Number of insts commited each cycle
system.switch_cpus_1.commit.committed_per_cycle::0    492070343     73.45%     73.45% # Number of insts commited each cycle
system.switch_cpus_1.commit.committed_per_cycle::1     69319745     10.35%     83.80% # Number of insts commited each cycle
system.switch_cpus_1.commit.committed_per_cycle::2     22688853      3.39%     87.19% # Number of insts commited each cycle
system.switch_cpus_1.commit.committed_per_cycle::3     26493210      3.95%     91.14% # Number of insts commited each cycle
system.switch_cpus_1.commit.committed_per_cycle::4     13403237      2.00%     93.15% # Number of insts commited each cycle
system.switch_cpus_1.commit.committed_per_cycle::5      4515938      0.67%     93.82% # Number of insts commited each cycle
system.switch_cpus_1.commit.committed_per_cycle::6      3225966      0.48%     94.30% # Number of insts commited each cycle
system.switch_cpus_1.commit.committed_per_cycle::7      3757355      0.56%     94.86% # Number of insts commited each cycle
system.switch_cpus_1.commit.committed_per_cycle::8     34420427      5.14%    100.00% # Number of insts commited each cycle
system.switch_cpus_1.commit.committed_per_cycle::overflows            0      0.00%    100.00% # Number of insts commited each cycle
system.switch_cpus_1.commit.committed_per_cycle::min_value            0                       # Number of insts commited each cycle
system.switch_cpus_1.commit.committed_per_cycle::max_value            8                       # Number of insts commited each cycle
system.switch_cpus_1.commit.committed_per_cycle::total    669895074                       # Number of insts commited each cycle
system.switch_cpus_1.commit.fp_insts           157352                       # Number of committed floating point instructions.
system.switch_cpus_1.commit.function_calls      1587937                       # Number of function calls committed.
system.switch_cpus_1.commit.int_insts       590654157                       # Number of committed integer instructions.
system.switch_cpus_1.commit.loads           104027389                       # Number of loads committed
system.switch_cpus_1.commit.membars                 0                       # Number of memory barriers committed
system.switch_cpus_1.commit.op_class_0::No_OpClass       735700      0.12%      0.12% # Class of committed instruction
system.switch_cpus_1.commit.op_class_0::IntAlu    451836507     76.40%     76.53% # Class of committed instruction
system.switch_cpus_1.commit.op_class_0::IntMult          343      0.00%     76.53% # Class of committed instruction
system.switch_cpus_1.commit.op_class_0::IntDiv          153      0.00%     76.53% # Class of committed instruction
system.switch_cpus_1.commit.op_class_0::FloatAdd            8      0.00%     76.53% # Class of committed instruction
system.switch_cpus_1.commit.op_class_0::FloatCmp            0      0.00%     76.53% # Class of committed instruction
system.switch_cpus_1.commit.op_class_0::FloatCvt            0      0.00%     76.53% # Class of committed instruction
system.switch_cpus_1.commit.op_class_0::FloatMult            0      0.00%     76.53% # Class of committed instruction
system.switch_cpus_1.commit.op_class_0::FloatMultAcc            0      0.00%     76.53% # Class of committed instruction
system.switch_cpus_1.commit.op_class_0::FloatDiv            0      0.00%     76.53% # Class of committed instruction
system.switch_cpus_1.commit.op_class_0::FloatMisc            0      0.00%     76.53% # Class of committed instruction
system.switch_cpus_1.commit.op_class_0::FloatSqrt            0      0.00%     76.53% # Class of committed instruction
system.switch_cpus_1.commit.op_class_0::SimdAdd            0      0.00%     76.53% # Class of committed instruction
system.switch_cpus_1.commit.op_class_0::SimdAddAcc            0      0.00%     76.53% # Class of committed instruction
system.switch_cpus_1.commit.op_class_0::SimdAlu           32      0.00%     76.53% # Class of committed instruction
system.switch_cpus_1.commit.op_class_0::SimdCmp            0      0.00%     76.53% # Class of committed instruction
system.switch_cpus_1.commit.op_class_0::SimdCvt           56      0.00%     76.53% # Class of committed instruction
system.switch_cpus_1.commit.op_class_0::SimdMisc          112      0.00%     76.53% # Class of committed instruction
system.switch_cpus_1.commit.op_class_0::SimdMult            0      0.00%     76.53% # Class of committed instruction
system.switch_cpus_1.commit.op_class_0::SimdMultAcc            0      0.00%     76.53% # Class of committed instruction
system.switch_cpus_1.commit.op_class_0::SimdShift            0      0.00%     76.53% # Class of committed instruction
system.switch_cpus_1.commit.op_class_0::SimdShiftAcc            0      0.00%     76.53% # Class of committed instruction
system.switch_cpus_1.commit.op_class_0::SimdDiv            0      0.00%     76.53% # Class of committed instruction
system.switch_cpus_1.commit.op_class_0::SimdSqrt            0      0.00%     76.53% # Class of committed instruction
system.switch_cpus_1.commit.op_class_0::SimdFloatAdd            0      0.00%     76.53% # Class of committed instruction
system.switch_cpus_1.commit.op_class_0::SimdFloatAlu            0      0.00%     76.53% # Class of committed instruction
system.switch_cpus_1.commit.op_class_0::SimdFloatCmp            0      0.00%     76.53% # Class of committed instruction
system.switch_cpus_1.commit.op_class_0::SimdFloatCvt            0      0.00%     76.53% # Class of committed instruction
system.switch_cpus_1.commit.op_class_0::SimdFloatDiv            0      0.00%     76.53% # Class of committed instruction
system.switch_cpus_1.commit.op_class_0::SimdFloatMisc            0      0.00%     76.53% # Class of committed instruction
system.switch_cpus_1.commit.op_class_0::SimdFloatMult            0      0.00%     76.53% # Class of committed instruction
system.switch_cpus_1.commit.op_class_0::SimdFloatMultAcc            0      0.00%     76.53% # Class of committed instruction
system.switch_cpus_1.commit.op_class_0::SimdFloatSqrt            0      0.00%     76.53% # Class of committed instruction
system.switch_cpus_1.commit.op_class_0::SimdReduceAdd            0      0.00%     76.53% # Class of committed instruction
system.switch_cpus_1.commit.op_class_0::SimdReduceAlu            0      0.00%     76.53% # Class of committed instruction
system.switch_cpus_1.commit.op_class_0::SimdReduceCmp            0      0.00%     76.53% # Class of committed instruction
system.switch_cpus_1.commit.op_class_0::SimdFloatReduceAdd            0      0.00%     76.53% # Class of committed instruction
system.switch_cpus_1.commit.op_class_0::SimdFloatReduceCmp            0      0.00%     76.53% # Class of committed instruction
system.switch_cpus_1.commit.op_class_0::SimdAes            0      0.00%     76.53% # Class of committed instruction
system.switch_cpus_1.commit.op_class_0::SimdAesMix            0      0.00%     76.53% # Class of committed instruction
system.switch_cpus_1.commit.op_class_0::SimdSha1Hash            0      0.00%     76.53% # Class of committed instruction
system.switch_cpus_1.commit.op_class_0::SimdSha1Hash2            0      0.00%     76.53% # Class of committed instruction
system.switch_cpus_1.commit.op_class_0::SimdSha256Hash            0      0.00%     76.53% # Class of committed instruction
system.switch_cpus_1.commit.op_class_0::SimdSha256Hash2            0      0.00%     76.53% # Class of committed instruction
system.switch_cpus_1.commit.op_class_0::SimdShaSigma2            0      0.00%     76.53% # Class of committed instruction
system.switch_cpus_1.commit.op_class_0::SimdShaSigma3            0      0.00%     76.53% # Class of committed instruction
system.switch_cpus_1.commit.op_class_0::SimdPredAlu            0      0.00%     76.53% # Class of committed instruction
system.switch_cpus_1.commit.op_class_0::MemRead    104027355     17.59%     94.12% # Class of committed instruction
system.switch_cpus_1.commit.op_class_0::MemWrite     34633036      5.86%     99.97% # Class of committed instruction
system.switch_cpus_1.commit.op_class_0::FloatMemRead           34      0.00%     99.97% # Class of committed instruction
system.switch_cpus_1.commit.op_class_0::FloatMemWrite       157080      0.03%    100.00% # Class of committed instruction
system.switch_cpus_1.commit.op_class_0::IprAccess            0      0.00%    100.00% # Class of committed instruction
system.switch_cpus_1.commit.op_class_0::InstPrefetch            0      0.00%    100.00% # Class of committed instruction
system.switch_cpus_1.commit.op_class_0::total    591390416                       # Class of committed instruction
system.switch_cpus_1.commit.refs            138817505                       # Number of memory references committed
system.switch_cpus_1.commit.swp_count               0                       # Number of s/w prefetches committed
system.switch_cpus_1.commit.vec_insts               0                       # Number of committed Vector instructions.
system.switch_cpus_1.committedInsts         349837583                       # Number of Instructions Simulated
system.switch_cpus_1.committedOps           591390416                       # Number of Ops (including micro ops) Simulated
system.switch_cpus_1.cpi                     2.095569                       # CPI: Cycles Per Instruction
system.switch_cpus_1.cpi_total               2.095569                       # CPI: Total CPI of All Threads
system.switch_cpus_1.decode.BlockedCycles    489000810                       # Number of cycles decode is blocked
system.switch_cpus_1.decode.DecodedInsts   1180111880                       # Number of instructions handled by decode
system.switch_cpus_1.decode.IdleCycles       67147060                       # Number of cycles decode is idle
system.switch_cpus_1.decode.RunCycles       135146741                       # Number of cycles decode is running
system.switch_cpus_1.decode.SquashCycles     11076468                       # Number of cycles decode is squashing
system.switch_cpus_1.decode.UnblockCycles     30695747                       # Number of cycles decode is unblocking
system.switch_cpus_1.dtb.rdAccesses         147650243                       # TLB accesses on read requests
system.switch_cpus_1.dtb.rdMisses             1981739                       # TLB misses on read requests
system.switch_cpus_1.dtb.wrAccesses          45058997                       # TLB accesses on write requests
system.switch_cpus_1.dtb.wrMisses              516570                       # TLB misses on write requests
system.switch_cpus_1.fetch.Branches         125319817                       # Number of branches that fetch encountered
system.switch_cpus_1.fetch.CacheLines        83452188                       # Number of cache lines fetched
system.switch_cpus_1.fetch.Cycles           631406350                       # Number of cycles fetch has run and was not squashing or blocked
system.switch_cpus_1.fetch.IcacheSquashes      2525265                       # Number of outstanding Icache misses that were squashed
system.switch_cpus_1.fetch.IcacheWaitRetryStallCycles           59                       # Number of stall cycles due to full MSHR
system.switch_cpus_1.fetch.Insts            772901538                       # Number of instructions fetch has processed
system.switch_cpus_1.fetch.MiscStallCycles          609                       # Number of cycles fetch has spent waiting on interrupts, or bad addresses, or out of MSHRs
system.switch_cpus_1.fetch.PendingQuiesceStallCycles            6                       # Number of stall cycles due to pending quiesce instructions
system.switch_cpus_1.fetch.PendingTrapStallCycles         9620                       # Number of stall cycles due to pending traps
system.switch_cpus_1.fetch.SquashCycles      22152936                       # Number of cycles fetch has spent squashing
system.switch_cpus_1.fetch.TlbCycles              105                       # Number of cycles fetch has spent waiting for tlb
system.switch_cpus_1.fetch.branchRate        0.170943                       # Number of branch fetches per cycle
system.switch_cpus_1.fetch.icacheStallCycles     90573620                       # Number of cycles fetch is stalled on an Icache miss
system.switch_cpus_1.fetch.predictedBranches     41164200                       # Number of branches that fetch has predicted taken
system.switch_cpus_1.fetch.rate              1.054279                       # Number of inst fetches per cycle
system.switch_cpus_1.fetch.rateDist::samples    733066837                       # Number of instructions fetched each cycle (Total)
system.switch_cpus_1.fetch.rateDist::mean     1.753678                       # Number of instructions fetched each cycle (Total)
system.switch_cpus_1.fetch.rateDist::stdev     3.079961                       # Number of instructions fetched each cycle (Total)
system.switch_cpus_1.fetch.rateDist::underflows            0      0.00%      0.00% # Number of instructions fetched each cycle (Total)
system.switch_cpus_1.fetch.rateDist::0      527334142     71.94%     71.94% # Number of instructions fetched each cycle (Total)
system.switch_cpus_1.fetch.rateDist::1       11956518      1.63%     73.57% # Number of instructions fetched each cycle (Total)
system.switch_cpus_1.fetch.rateDist::2       15253154      2.08%     75.65% # Number of instructions fetched each cycle (Total)
system.switch_cpus_1.fetch.rateDist::3       11666805      1.59%     77.24% # Number of instructions fetched each cycle (Total)
system.switch_cpus_1.fetch.rateDist::4       10137718      1.38%     78.62% # Number of instructions fetched each cycle (Total)
system.switch_cpus_1.fetch.rateDist::5       18263933      2.49%     81.11% # Number of instructions fetched each cycle (Total)
system.switch_cpus_1.fetch.rateDist::6       10846099      1.48%     82.59% # Number of instructions fetched each cycle (Total)
system.switch_cpus_1.fetch.rateDist::7        9714697      1.33%     83.92% # Number of instructions fetched each cycle (Total)
system.switch_cpus_1.fetch.rateDist::8      117893771     16.08%    100.00% # Number of instructions fetched each cycle (Total)
system.switch_cpus_1.fetch.rateDist::overflows            0      0.00%    100.00% # Number of instructions fetched each cycle (Total)
system.switch_cpus_1.fetch.rateDist::min_value            0                       # Number of instructions fetched each cycle (Total)
system.switch_cpus_1.fetch.rateDist::max_value            8                       # Number of instructions fetched each cycle (Total)
system.switch_cpus_1.fetch.rateDist::total    733066837                       # Number of instructions fetched each cycle (Total)
system.switch_cpus_1.fp_regfile_reads          280299                       # number of floating regfile reads
system.switch_cpus_1.fp_regfile_writes          78684                       # number of floating regfile writes
system.switch_cpus_1.idleCycles                 42091                       # Total number of cycles that the CPU has spent unscheduled due to idling
system.switch_cpus_1.iew.branchMispredicts     13263032                       # Number of branch mispredicts detected at execute
system.switch_cpus_1.iew.exec_branches       74029523                       # Number of branches executed
system.switch_cpus_1.iew.exec_nop                   0                       # number of nop insts executed
system.switch_cpus_1.iew.exec_rate           1.155861                       # Inst execution rate
system.switch_cpus_1.iew.exec_refs          196031087                       # number of memory reference insts executed
system.switch_cpus_1.iew.exec_stores         45052663                       # Number of stores executed
system.switch_cpus_1.iew.exec_swp                   0                       # number of swp insts executed
system.switch_cpus_1.iew.iewBlockCycles     194390253                       # Number of cycles IEW is blocking
system.switch_cpus_1.iew.iewDispLoadInsts    182182158                       # Number of dispatched load instructions
system.switch_cpus_1.iew.iewDispNonSpecInsts           84                       # Number of dispatched non-speculative instructions
system.switch_cpus_1.iew.iewDispSquashedInsts       961411                       # Number of squashed instructions skipped by dispatch
system.switch_cpus_1.iew.iewDispStoreInsts     65299377                       # Number of dispatched store instructions
system.switch_cpus_1.iew.iewDispatchedInsts   1016938027                       # Number of instructions dispatched to IQ
system.switch_cpus_1.iew.iewExecLoadInsts    150978424                       # Number of load instructions executed
system.switch_cpus_1.iew.iewExecSquashedInsts     27041747                       # Number of squashed instructions skipped in execute
system.switch_cpus_1.iew.iewExecutedInsts    847372301                       # Number of executed instructions
system.switch_cpus_1.iew.iewIQFullEvents      1182047                       # Number of times the IQ has become full, causing a stall
system.switch_cpus_1.iew.iewIdleCycles              0                       # Number of cycles IEW is idle
system.switch_cpus_1.iew.iewLSQFullEvents     52067856                       # Number of times the LSQ has become full, causing a stall
system.switch_cpus_1.iew.iewSquashCycles     11076468                       # Number of cycles IEW is squashing
system.switch_cpus_1.iew.iewUnblockCycles     54216651                       # Number of cycles IEW is unblocking
system.switch_cpus_1.iew.lsq.thread0.blockedLoads            0                       # Number of blocked loads due to partial load-store forwarding
system.switch_cpus_1.iew.lsq.thread0.cacheBlocked      1098321                       # Number of times an access to memory failed due to the cache being blocked
system.switch_cpus_1.iew.lsq.thread0.forwLoads     14033855                       # Number of loads that had data forwarded from stores
system.switch_cpus_1.iew.lsq.thread0.ignoredResponses        72113                       # Number of memory responses ignored because the instruction is squashed
system.switch_cpus_1.iew.lsq.thread0.invAddrLoads            0                       # Number of loads ignored due to an invalid address
system.switch_cpus_1.iew.lsq.thread0.invAddrSwpfs            0                       # Number of software prefetches ignored due to an invalid address
system.switch_cpus_1.iew.lsq.thread0.memOrderViolation        43864                       # Number of memory ordering violations
system.switch_cpus_1.iew.lsq.thread0.rescheduledLoads        53686                       # Number of loads that were rescheduled
system.switch_cpus_1.iew.lsq.thread0.squashedLoads     78154769                       # Number of loads squashed
system.switch_cpus_1.iew.lsq.thread0.squashedStores     30509261                       # Number of stores squashed
system.switch_cpus_1.iew.memOrderViolationEvents        43864                       # Number of memory order violations
system.switch_cpus_1.iew.predictedNotTakenIncorrect     11931999                       # Number of branches that were predicted not taken incorrectly
system.switch_cpus_1.iew.predictedTakenIncorrect      1331033                       # Number of branches that were predicted taken incorrectly
system.switch_cpus_1.iew.wb_consumers       957302043                       # num instructions consuming a value
system.switch_cpus_1.iew.wb_count           827069866                       # cumulative count of insts written-back
system.switch_cpus_1.iew.wb_fanout           0.664307                       # average fanout of values written-back
system.switch_cpus_1.iew.wb_producers       635942516                       # num instructions producing a value
system.switch_cpus_1.iew.wb_rate             1.128168                       # insts written-back per cycle
system.switch_cpus_1.iew.wb_sent            832846905                       # cumulative count of insts sent to commit
system.switch_cpus_1.int_regfile_reads     1296199759                       # number of integer regfile reads
system.switch_cpus_1.int_regfile_writes     710268396                       # number of integer regfile writes
system.switch_cpus_1.ipc                     0.477197                       # IPC: Instructions Per Cycle
system.switch_cpus_1.ipc_total               0.477197                       # IPC: Total IPC of All Threads
system.switch_cpus_1.iq.FU_type_0::No_OpClass      3058501      0.35%      0.35% # Type of FU issued
system.switch_cpus_1.iq.FU_type_0::IntAlu    665286136     76.08%     76.43% # Type of FU issued
system.switch_cpus_1.iq.FU_type_0::IntMult          376      0.00%     76.43% # Type of FU issued
system.switch_cpus_1.iq.FU_type_0::IntDiv          154      0.00%     76.43% # Type of FU issued
system.switch_cpus_1.iq.FU_type_0::FloatAdd           11      0.00%     76.43% # Type of FU issued
system.switch_cpus_1.iq.FU_type_0::FloatCmp            0      0.00%     76.43% # Type of FU issued
system.switch_cpus_1.iq.FU_type_0::FloatCvt         6993      0.00%     76.43% # Type of FU issued
system.switch_cpus_1.iq.FU_type_0::FloatMult            0      0.00%     76.43% # Type of FU issued
system.switch_cpus_1.iq.FU_type_0::FloatMultAcc            0      0.00%     76.43% # Type of FU issued
system.switch_cpus_1.iq.FU_type_0::FloatDiv            0      0.00%     76.43% # Type of FU issued
system.switch_cpus_1.iq.FU_type_0::FloatMisc            0      0.00%     76.43% # Type of FU issued
system.switch_cpus_1.iq.FU_type_0::FloatSqrt            0      0.00%     76.43% # Type of FU issued
system.switch_cpus_1.iq.FU_type_0::SimdAdd            0      0.00%     76.43% # Type of FU issued
system.switch_cpus_1.iq.FU_type_0::SimdAddAcc            0      0.00%     76.43% # Type of FU issued
system.switch_cpus_1.iq.FU_type_0::SimdAlu           38      0.00%     76.43% # Type of FU issued
system.switch_cpus_1.iq.FU_type_0::SimdCmp            0      0.00%     76.43% # Type of FU issued
system.switch_cpus_1.iq.FU_type_0::SimdCvt           66      0.00%     76.43% # Type of FU issued
system.switch_cpus_1.iq.FU_type_0::SimdMisc       105035      0.01%     76.45% # Type of FU issued
system.switch_cpus_1.iq.FU_type_0::SimdMult            0      0.00%     76.45% # Type of FU issued
system.switch_cpus_1.iq.FU_type_0::SimdMultAcc            0      0.00%     76.45% # Type of FU issued
system.switch_cpus_1.iq.FU_type_0::SimdShift            0      0.00%     76.45% # Type of FU issued
system.switch_cpus_1.iq.FU_type_0::SimdShiftAcc            0      0.00%     76.45% # Type of FU issued
system.switch_cpus_1.iq.FU_type_0::SimdDiv            0      0.00%     76.45% # Type of FU issued
system.switch_cpus_1.iq.FU_type_0::SimdSqrt            0      0.00%     76.45% # Type of FU issued
system.switch_cpus_1.iq.FU_type_0::SimdFloatAdd            0      0.00%     76.45% # Type of FU issued
system.switch_cpus_1.iq.FU_type_0::SimdFloatAlu            0      0.00%     76.45% # Type of FU issued
system.switch_cpus_1.iq.FU_type_0::SimdFloatCmp            0      0.00%     76.45% # Type of FU issued
system.switch_cpus_1.iq.FU_type_0::SimdFloatCvt        39921      0.00%     76.45% # Type of FU issued
system.switch_cpus_1.iq.FU_type_0::SimdFloatDiv            0      0.00%     76.45% # Type of FU issued
system.switch_cpus_1.iq.FU_type_0::SimdFloatMisc            0      0.00%     76.45% # Type of FU issued
system.switch_cpus_1.iq.FU_type_0::SimdFloatMult            0      0.00%     76.45% # Type of FU issued
system.switch_cpus_1.iq.FU_type_0::SimdFloatMultAcc            0      0.00%     76.45% # Type of FU issued
system.switch_cpus_1.iq.FU_type_0::SimdFloatSqrt            0      0.00%     76.45% # Type of FU issued
system.switch_cpus_1.iq.FU_type_0::SimdReduceAdd            0      0.00%     76.45% # Type of FU issued
system.switch_cpus_1.iq.FU_type_0::SimdReduceAlu            0      0.00%     76.45% # Type of FU issued
system.switch_cpus_1.iq.FU_type_0::SimdReduceCmp            0      0.00%     76.45% # Type of FU issued
system.switch_cpus_1.iq.FU_type_0::SimdFloatReduceAdd            0      0.00%     76.45% # Type of FU issued
system.switch_cpus_1.iq.FU_type_0::SimdFloatReduceCmp            0      0.00%     76.45% # Type of FU issued
system.switch_cpus_1.iq.FU_type_0::SimdAes            0      0.00%     76.45% # Type of FU issued
system.switch_cpus_1.iq.FU_type_0::SimdAesMix            0      0.00%     76.45% # Type of FU issued
system.switch_cpus_1.iq.FU_type_0::SimdSha1Hash            0      0.00%     76.45% # Type of FU issued
system.switch_cpus_1.iq.FU_type_0::SimdSha1Hash2            0      0.00%     76.45% # Type of FU issued
system.switch_cpus_1.iq.FU_type_0::SimdSha256Hash            0      0.00%     76.45% # Type of FU issued
system.switch_cpus_1.iq.FU_type_0::SimdSha256Hash2            0      0.00%     76.45% # Type of FU issued
system.switch_cpus_1.iq.FU_type_0::SimdShaSigma2            0      0.00%     76.45% # Type of FU issued
system.switch_cpus_1.iq.FU_type_0::SimdShaSigma3            0      0.00%     76.45% # Type of FU issued
system.switch_cpus_1.iq.FU_type_0::SimdPredAlu            0      0.00%     76.45% # Type of FU issued
system.switch_cpus_1.iq.FU_type_0::MemRead    158429058     18.12%     94.57% # Type of FU issued
system.switch_cpus_1.iq.FU_type_0::MemWrite     47330336      5.41%     99.98% # Type of FU issued
system.switch_cpus_1.iq.FU_type_0::FloatMemRead           63      0.00%     99.98% # Type of FU issued
system.switch_cpus_1.iq.FU_type_0::FloatMemWrite       157360      0.02%    100.00% # Type of FU issued
system.switch_cpus_1.iq.FU_type_0::IprAccess            0      0.00%    100.00% # Type of FU issued
system.switch_cpus_1.iq.FU_type_0::InstPrefetch            0      0.00%    100.00% # Type of FU issued
system.switch_cpus_1.iq.FU_type_0::total    874414048                       # Type of FU issued
system.switch_cpus_1.iq.fp_alu_accesses        309604                       # Number of floating point alu accesses
system.switch_cpus_1.iq.fp_inst_queue_reads       622750                       # Number of floating instruction queue reads
system.switch_cpus_1.iq.fp_inst_queue_wakeup_accesses       242661                       # Number of floating instruction queue wakeup accesses
system.switch_cpus_1.iq.fp_inst_queue_writes       967568                       # Number of floating instruction queue writes
system.switch_cpus_1.iq.fu_busy_cnt           9470691                       # FU busy when requested
system.switch_cpus_1.iq.fu_busy_rate         0.010831                       # FU busy rate (busy events/executed inst)
system.switch_cpus_1.iq.fu_full::No_OpClass            0      0.00%      0.00% # attempts to use FU when none available
system.switch_cpus_1.iq.fu_full::IntAlu       7447449     78.64%     78.64% # attempts to use FU when none available
system.switch_cpus_1.iq.fu_full::IntMult            0      0.00%     78.64% # attempts to use FU when none available
system.switch_cpus_1.iq.fu_full::IntDiv             0      0.00%     78.64% # attempts to use FU when none available
system.switch_cpus_1.iq.fu_full::FloatAdd            0      0.00%     78.64% # attempts to use FU when none available
system.switch_cpus_1.iq.fu_full::FloatCmp            0      0.00%     78.64% # attempts to use FU when none available
system.switch_cpus_1.iq.fu_full::FloatCvt            2      0.00%     78.64% # attempts to use FU when none available
system.switch_cpus_1.iq.fu_full::FloatMult            0      0.00%     78.64% # attempts to use FU when none available
system.switch_cpus_1.iq.fu_full::FloatMultAcc            0      0.00%     78.64% # attempts to use FU when none available
system.switch_cpus_1.iq.fu_full::FloatDiv            0      0.00%     78.64% # attempts to use FU when none available
system.switch_cpus_1.iq.fu_full::FloatMisc            0      0.00%     78.64% # attempts to use FU when none available
system.switch_cpus_1.iq.fu_full::FloatSqrt            0      0.00%     78.64% # attempts to use FU when none available
system.switch_cpus_1.iq.fu_full::SimdAdd            0      0.00%     78.64% # attempts to use FU when none available
system.switch_cpus_1.iq.fu_full::SimdAddAcc            0      0.00%     78.64% # attempts to use FU when none available
system.switch_cpus_1.iq.fu_full::SimdAlu            1      0.00%     78.64% # attempts to use FU when none available
system.switch_cpus_1.iq.fu_full::SimdCmp            0      0.00%     78.64% # attempts to use FU when none available
system.switch_cpus_1.iq.fu_full::SimdCvt            3      0.00%     78.64% # attempts to use FU when none available
system.switch_cpus_1.iq.fu_full::SimdMisc            0      0.00%     78.64% # attempts to use FU when none available
system.switch_cpus_1.iq.fu_full::SimdMult            0      0.00%     78.64% # attempts to use FU when none available
system.switch_cpus_1.iq.fu_full::SimdMultAcc            0      0.00%     78.64% # attempts to use FU when none available
system.switch_cpus_1.iq.fu_full::SimdShift            0      0.00%     78.64% # attempts to use FU when none available
system.switch_cpus_1.iq.fu_full::SimdShiftAcc            0      0.00%     78.64% # attempts to use FU when none available
system.switch_cpus_1.iq.fu_full::SimdDiv            0      0.00%     78.64% # attempts to use FU when none available
system.switch_cpus_1.iq.fu_full::SimdSqrt            0      0.00%     78.64% # attempts to use FU when none available
system.switch_cpus_1.iq.fu_full::SimdFloatAdd            0      0.00%     78.64% # attempts to use FU when none available
system.switch_cpus_1.iq.fu_full::SimdFloatAlu            0      0.00%     78.64% # attempts to use FU when none available
system.switch_cpus_1.iq.fu_full::SimdFloatCmp            0      0.00%     78.64% # attempts to use FU when none available
system.switch_cpus_1.iq.fu_full::SimdFloatCvt            0      0.00%     78.64% # attempts to use FU when none available
system.switch_cpus_1.iq.fu_full::SimdFloatDiv            0      0.00%     78.64% # attempts to use FU when none available
system.switch_cpus_1.iq.fu_full::SimdFloatMisc            0      0.00%     78.64% # attempts to use FU when none available
system.switch_cpus_1.iq.fu_full::SimdFloatMult            0      0.00%     78.64% # attempts to use FU when none available
system.switch_cpus_1.iq.fu_full::SimdFloatMultAcc            0      0.00%     78.64% # attempts to use FU when none available
system.switch_cpus_1.iq.fu_full::SimdFloatSqrt            0      0.00%     78.64% # attempts to use FU when none available
system.switch_cpus_1.iq.fu_full::SimdReduceAdd            0      0.00%     78.64% # attempts to use FU when none available
system.switch_cpus_1.iq.fu_full::SimdReduceAlu            0      0.00%     78.64% # attempts to use FU when none available
system.switch_cpus_1.iq.fu_full::SimdReduceCmp            0      0.00%     78.64% # attempts to use FU when none available
system.switch_cpus_1.iq.fu_full::SimdFloatReduceAdd            0      0.00%     78.64% # attempts to use FU when none available
system.switch_cpus_1.iq.fu_full::SimdFloatReduceCmp            0      0.00%     78.64% # attempts to use FU when none available
system.switch_cpus_1.iq.fu_full::SimdAes            0      0.00%     78.64% # attempts to use FU when none available
system.switch_cpus_1.iq.fu_full::SimdAesMix            0      0.00%     78.64% # attempts to use FU when none available
system.switch_cpus_1.iq.fu_full::SimdSha1Hash            0      0.00%     78.64% # attempts to use FU when none available
system.switch_cpus_1.iq.fu_full::SimdSha1Hash2            0      0.00%     78.64% # attempts to use FU when none available
system.switch_cpus_1.iq.fu_full::SimdSha256Hash            0      0.00%     78.64% # attempts to use FU when none available
system.switch_cpus_1.iq.fu_full::SimdSha256Hash2            0      0.00%     78.64% # attempts to use FU when none available
system.switch_cpus_1.iq.fu_full::SimdShaSigma2            0      0.00%     78.64% # attempts to use FU when none available
system.switch_cpus_1.iq.fu_full::SimdShaSigma3            0      0.00%     78.64% # attempts to use FU when none available
system.switch_cpus_1.iq.fu_full::SimdPredAlu            0      0.00%     78.64% # attempts to use FU when none available
system.switch_cpus_1.iq.fu_full::MemRead      1945135     20.54%     99.18% # attempts to use FU when none available
system.switch_cpus_1.iq.fu_full::MemWrite        78026      0.82%    100.00% # attempts to use FU when none available
system.switch_cpus_1.iq.fu_full::FloatMemRead            3      0.00%    100.00% # attempts to use FU when none available
system.switch_cpus_1.iq.fu_full::FloatMemWrite           72      0.00%    100.00% # attempts to use FU when none available
system.switch_cpus_1.iq.fu_full::IprAccess            0      0.00%    100.00% # attempts to use FU when none available
system.switch_cpus_1.iq.fu_full::InstPrefetch            0      0.00%    100.00% # attempts to use FU when none available
system.switch_cpus_1.iq.int_alu_accesses    880516634                       # Number of integer alu accesses
system.switch_cpus_1.iq.int_inst_queue_reads   2493067678                       # Number of integer instruction queue reads
system.switch_cpus_1.iq.int_inst_queue_wakeup_accesses    826827205                       # Number of integer instruction queue wakeup accesses
system.switch_cpus_1.iq.int_inst_queue_writes   1441559230                       # Number of integer instruction queue writes
system.switch_cpus_1.iq.iqInstsAdded       1016937800                       # Number of instructions added to the IQ (excludes non-spec)
system.switch_cpus_1.iq.iqInstsIssued       874414048                       # Number of instructions issued
system.switch_cpus_1.iq.iqNonSpecInstsAdded          227                       # Number of non-speculative instructions added to the IQ
system.switch_cpus_1.iq.iqSquashedInstsExamined    425547610                       # Number of squashed instructions iterated over during squash; mainly for profiling
system.switch_cpus_1.iq.iqSquashedInstsIssued      2324804                       # Number of squashed instructions issued
system.switch_cpus_1.iq.iqSquashedNonSpecRemoved          221                       # Number of squashed non-spec instructions that were removed
system.switch_cpus_1.iq.iqSquashedOperandsExamined    615029318                       # Number of squashed operands that are examined and possibly removed from graph
system.switch_cpus_1.iq.issued_per_cycle::samples    733066837                       # Number of insts issued each cycle
system.switch_cpus_1.iq.issued_per_cycle::mean     1.192816                       # Number of insts issued each cycle
system.switch_cpus_1.iq.issued_per_cycle::stdev     1.991736                       # Number of insts issued each cycle
system.switch_cpus_1.iq.issued_per_cycle::underflows            0      0.00%      0.00% # Number of insts issued each cycle
system.switch_cpus_1.iq.issued_per_cycle::0    469617806     64.06%     64.06% # Number of insts issued each cycle
system.switch_cpus_1.iq.issued_per_cycle::1     62044001      8.46%     72.53% # Number of insts issued each cycle
system.switch_cpus_1.iq.issued_per_cycle::2     52106025      7.11%     79.63% # Number of insts issued each cycle
system.switch_cpus_1.iq.issued_per_cycle::3     37940820      5.18%     84.81% # Number of insts issued each cycle
system.switch_cpus_1.iq.issued_per_cycle::4     36027804      4.91%     89.72% # Number of insts issued each cycle
system.switch_cpus_1.iq.issued_per_cycle::5     29745601      4.06%     93.78% # Number of insts issued each cycle
system.switch_cpus_1.iq.issued_per_cycle::6     24691660      3.37%     97.15% # Number of insts issued each cycle
system.switch_cpus_1.iq.issued_per_cycle::7     13798604      1.88%     99.03% # Number of insts issued each cycle
system.switch_cpus_1.iq.issued_per_cycle::8      7094516      0.97%    100.00% # Number of insts issued each cycle
system.switch_cpus_1.iq.issued_per_cycle::overflows            0      0.00%    100.00% # Number of insts issued each cycle
system.switch_cpus_1.iq.issued_per_cycle::min_value            0                       # Number of insts issued each cycle
system.switch_cpus_1.iq.issued_per_cycle::max_value            8                       # Number of insts issued each cycle
system.switch_cpus_1.iq.issued_per_cycle::total    733066837                       # Number of insts issued each cycle
system.switch_cpus_1.iq.rate                 1.192748                       # Inst issue rate
system.switch_cpus_1.iq.vec_alu_accesses            0                       # Number of vector alu accesses
system.switch_cpus_1.iq.vec_inst_queue_reads            0                       # Number of vector instruction queue reads
system.switch_cpus_1.iq.vec_inst_queue_wakeup_accesses            0                       # Number of vector instruction queue wakeup accesses
system.switch_cpus_1.iq.vec_inst_queue_writes            0                       # Number of vector instruction queue writes
system.switch_cpus_1.itb.rdAccesses                 0                       # TLB accesses on read requests
system.switch_cpus_1.itb.rdMisses                   0                       # TLB misses on read requests
system.switch_cpus_1.itb.wrAccesses          83452930                       # TLB accesses on write requests
system.switch_cpus_1.itb.wrMisses                 806                       # TLB misses on write requests
system.switch_cpus_1.memDep0.conflictingLoads     30783366                       # Number of conflicting loads.
system.switch_cpus_1.memDep0.conflictingStores     18070424                       # Number of conflicting stores.
system.switch_cpus_1.memDep0.insertedLoads    182182158                       # Number of loads inserted to the mem dependence unit.
system.switch_cpus_1.memDep0.insertedStores     65299377                       # Number of stores inserted to the mem dependence unit.
system.switch_cpus_1.misc_regfile_reads     362305368                       # number of misc regfile reads
system.switch_cpus_1.numCycles              733108928                       # number of cpu cycles simulated
system.switch_cpus_1.numWorkItemsCompleted            0                       # number of work items this cpu completed
system.switch_cpus_1.numWorkItemsStarted            0                       # number of work items this cpu started
system.switch_cpus_1.rename.BlockCycles     327741125                       # Number of cycles rename is blocking
system.switch_cpus_1.rename.CommittedMaps    743940138                       # Number of HB maps that are committed
system.switch_cpus_1.rename.IQFullEvents     47673408                       # Number of times rename has blocked due to IQ full
system.switch_cpus_1.rename.IdleCycles       83332372                       # Number of cycles rename is idle
system.switch_cpus_1.rename.LQFullEvents     28421015                       # Number of times rename has blocked due to LQ full
system.switch_cpus_1.rename.ROBFullEvents      4834227                       # Number of times rename has blocked due to ROB full
system.switch_cpus_1.rename.RenameLookups   2853703780                       # Number of register rename lookups that rename has made
system.switch_cpus_1.rename.RenamedInsts   1122495812                       # Number of instructions processed by rename
system.switch_cpus_1.rename.RenamedOperands   1363928852                       # Number of destination operands rename has renamed
system.switch_cpus_1.rename.RunCycles       146997579                       # Number of cycles rename is running
system.switch_cpus_1.rename.SQFullEvents     81914172                       # Number of times rename has blocked due to SQ full
system.switch_cpus_1.rename.SquashCycles     11076468                       # Number of cycles rename is squashing
system.switch_cpus_1.rename.UnblockCycles    163918894                       # Number of cycles rename is unblocking
system.switch_cpus_1.rename.UndoneMaps      619988714                       # Number of HB maps that are undone due to squashing
system.switch_cpus_1.rename.fp_rename_lookups      2402784                       # Number of floating rename lookups
system.switch_cpus_1.rename.int_rename_lookups   1822186380                       # Number of integer rename lookups
system.switch_cpus_1.rename.serializeStallCycles          389                       # count of cycles rename stalled for serializing inst
system.switch_cpus_1.rename.serializingInsts            8                       # count of serializing insts renamed
system.switch_cpus_1.rename.skidInsts       143497774                       # count of insts added to the skid buffer
system.switch_cpus_1.rename.tempSerializingInsts            8                       # count of temporary serializing insts renamed
system.switch_cpus_1.rob.rob_reads         1652531171                       # The number of ROB reads
system.switch_cpus_1.rob.rob_writes        2098130892                       # The number of ROB writes
system.switch_cpus_1.timesIdled                   324                       # Number of times that the entire CPU went into an idle state and unscheduled itself
system.tol2bus.snoop_filter.hit_multi_requests            0                       # Number of requests hitting in the snoop filter with multiple (>1) holders of the requested data.
system.tol2bus.snoop_filter.hit_multi_snoops            0                       # Number of snoops hitting in the snoop filter with multiple (>1) holders of the requested data.
system.tol2bus.snoop_filter.hit_single_requests      5768866                       # Number of requests hitting in the snoop filter with a single holder of the requested data.
system.tol2bus.snoop_filter.hit_single_snoops         6401                       # Number of snoops hitting in the snoop filter with a single holder of the requested data.
system.tol2bus.snoop_filter.tot_requests     11337961                       # Total number of requests made to the snoop filter.
system.tol2bus.snoop_filter.tot_snoops           6401                       # Total number of snoops made to the snoop filter.
system.tol3bus.snoop_filter.hit_multi_requests            0                       # Number of requests hitting in the snoop filter with multiple (>1) holders of the requested data.
system.tol3bus.snoop_filter.hit_multi_snoops            0                       # Number of snoops hitting in the snoop filter with multiple (>1) holders of the requested data.
system.tol3bus.snoop_filter.hit_single_requests      5002741                       # Number of requests hitting in the snoop filter with a single holder of the requested data.
system.tol3bus.snoop_filter.hit_single_snoops       617949                       # Number of snoops hitting in the snoop filter with a single holder of the requested data.
system.tol3bus.snoop_filter.tot_requests      9918556                       # Total number of requests made to the snoop filter.
system.tol3bus.snoop_filter.tot_snoops         617949                       # Total number of snoops made to the snoop filter.
system.membus.trans_dist::ReadResp            1784024                       # Transaction distribution
system.membus.trans_dist::WritebackDirty       686330                       # Transaction distribution
system.membus.trans_dist::CleanEvict          1690815                       # Transaction distribution
system.membus.trans_dist::UpgradeReq               12                       # Transaction distribution
system.membus.trans_dist::ReadExReq            592680                       # Transaction distribution
system.membus.trans_dist::ReadExResp           592680                       # Transaction distribution
system.membus.trans_dist::ReadSharedReq       1784024                       # Transaction distribution
system.membus.pkt_count_system.l3.mem_side::system.mem_ctrls.port      7130565                       # Packet count per connected master and slave (bytes)
system.membus.pkt_count_system.l3.mem_side::total      7130565                       # Packet count per connected master and slave (bytes)
system.membus.pkt_count::total                7130565                       # Packet count per connected master and slave (bytes)
system.membus.pkt_size_system.l3.mem_side::system.mem_ctrls.port    196034176                       # Cumulative packet size per connected master and slave (bytes)
system.membus.pkt_size_system.l3.mem_side::total    196034176                       # Cumulative packet size per connected master and slave (bytes)
system.membus.pkt_size::total               196034176                       # Cumulative packet size per connected master and slave (bytes)
system.membus.snoops                                0                       # Total snoops (count)
system.membus.snoopTraffic                          0                       # Total snoop traffic (bytes)
system.membus.snoop_fanout::samples           2376716                       # Request fanout histogram
system.membus.snoop_fanout::mean                    0                       # Request fanout histogram
system.membus.snoop_fanout::stdev                   0                       # Request fanout histogram
system.membus.snoop_fanout::underflows              0      0.00%      0.00% # Request fanout histogram
system.membus.snoop_fanout::0                 2376716    100.00%    100.00% # Request fanout histogram
system.membus.snoop_fanout::1                       0      0.00%    100.00% # Request fanout histogram
system.membus.snoop_fanout::overflows               0      0.00%    100.00% # Request fanout histogram
system.membus.snoop_fanout::min_value               0                       # Request fanout histogram
system.membus.snoop_fanout::max_value               0                       # Request fanout histogram
system.membus.snoop_fanout::total             2376716                       # Request fanout histogram
system.membus.reqLayer2.occupancy          8205934000                       # Layer occupancy (ticks)
system.membus.reqLayer2.utilization               2.2                       # Layer utilization (%)
system.membus.respLayer1.occupancy        12963678500                       # Layer occupancy (ticks)
system.membus.respLayer1.utilization              3.5                       # Layer utilization (%)
system.membus.power_state.pwrStateResidencyTicks::UNDEFINED 1514528125000                       # Cumulative time (in ticks) in various power states
system.switch_cpus_1.dtb.walker.power_state.pwrStateResidencyTicks::UNDEFINED 1514528125000                       # Cumulative time (in ticks) in various power states
system.switch_cpus_1.itb.walker.power_state.pwrStateResidencyTicks::UNDEFINED 1514528125000                       # Cumulative time (in ticks) in various power states
system.switch_cpus_1.power_state.pwrStateResidencyTicks::OFF 1514528125000                       # Cumulative time (in ticks) in various power states
system.switch_cpus.dtb.walker.power_state.pwrStateResidencyTicks::UNDEFINED 1514528125000                       # Cumulative time (in ticks) in various power states
system.switch_cpus.itb.walker.power_state.pwrStateResidencyTicks::UNDEFINED 1514528125000                       # Cumulative time (in ticks) in various power states
system.switch_cpus.power_state.numTransitions            1                       # Number of power state transitions
system.switch_cpus.power_state.pwrStateResidencyTicks::OFF 1514528125000                       # Cumulative time (in ticks) in various power states
system.tol2bus.trans_dist::ReadResp           4633635                       # Transaction distribution
system.tol2bus.trans_dist::WritebackDirty      1916894                       # Transaction distribution
system.tol2bus.trans_dist::WritebackClean          639                       # Transaction distribution
system.tol2bus.trans_dist::CleanEvict         5051999                       # Transaction distribution
system.tol2bus.trans_dist::UpgradeReq          199766                       # Transaction distribution
system.tol2bus.trans_dist::UpgradeResp         199766                       # Transaction distribution
system.tol2bus.trans_dist::ReadExReq           935462                       # Transaction distribution
system.tol2bus.trans_dist::ReadExResp          935462                       # Transaction distribution
system.tol2bus.trans_dist::ReadCleanReq       4633636                       # Transaction distribution
system.tol2bus.pkt_count_system.cpu.icache.mem_side::system.l2.cpu_side         1918                       # Packet count per connected master and slave (bytes)
system.tol2bus.pkt_count_system.cpu.dcache.mem_side::system.l2.cpu_side     17104906                       # Packet count per connected master and slave (bytes)
system.tol2bus.pkt_count::total              17106824                       # Packet count per connected master and slave (bytes)
system.tol2bus.pkt_size_system.cpu.icache.mem_side::system.l2.cpu_side        81792                       # Cumulative packet size per connected master and slave (bytes)
system.tol2bus.pkt_size_system.cpu.dcache.mem_side::system.l2.cpu_side    429008768                       # Cumulative packet size per connected master and slave (bytes)
system.tol2bus.pkt_size::total              429090560                       # Cumulative packet size per connected master and slave (bytes)
system.tol2bus.snoops                         1400435                       # Total snoops (count)
system.tol2bus.snoopTraffic                  50053760                       # Total snoop traffic (bytes)
system.tol2bus.snoop_fanout::samples          7169299                       # Request fanout histogram
system.tol2bus.snoop_fanout::mean            0.000893                       # Request fanout histogram
system.tol2bus.snoop_fanout::stdev           0.029874                       # Request fanout histogram
system.tol2bus.snoop_fanout::underflows             0      0.00%      0.00% # Request fanout histogram
system.tol2bus.snoop_fanout::0                7162895     99.91%     99.91% # Request fanout histogram
system.tol2bus.snoop_fanout::1                   6404      0.09%    100.00% # Request fanout histogram
system.tol2bus.snoop_fanout::2                      0      0.00%    100.00% # Request fanout histogram
system.tol2bus.snoop_fanout::3                      0      0.00%    100.00% # Request fanout histogram
system.tol2bus.snoop_fanout::4                      0      0.00%    100.00% # Request fanout histogram
system.tol2bus.snoop_fanout::overflows              0      0.00%    100.00% # Request fanout histogram
system.tol2bus.snoop_fanout::min_value              0                       # Request fanout histogram
system.tol2bus.snoop_fanout::max_value              1                       # Request fanout histogram
system.tol2bus.snoop_fanout::total            7169299                       # Request fanout histogram
system.tol2bus.reqLayer0.occupancy         6804423500                       # Layer occupancy (ticks)
system.tol2bus.reqLayer0.utilization              1.9                       # Layer utilization (%)
system.tol2bus.respLayer1.occupancy        8452570000                       # Layer occupancy (ticks)
system.tol2bus.respLayer1.utilization             2.3                       # Layer utilization (%)
system.tol2bus.respLayer0.occupancy            958500                       # Layer occupancy (ticks)
system.tol2bus.respLayer0.utilization             0.0                       # Layer utilization (%)
system.tol2bus.power_state.pwrStateResidencyTicks::UNDEFINED 1514528125000                       # Cumulative time (in ticks) in various power states
system.voltage_domain.voltage                       1                       # Voltage in Volts
system.clk_domain.clock                          1000                       # Clock period in ticks
system.l2.demand_hits::.switch_cpus_1.inst           55                       # number of demand (read+write) hits
system.l2.demand_hits::.switch_cpus_1.data       653224                       # number of demand (read+write) hits
system.l2.demand_hits::total                   653279                       # number of demand (read+write) hits
system.l2.overall_hits::.switch_cpus_1.inst           55                       # number of overall hits
system.l2.overall_hits::.switch_cpus_1.data       653224                       # number of overall hits
system.l2.overall_hits::total                  653279                       # number of overall hits
system.l2.demand_misses::.switch_cpus_1.inst          585                       # number of demand (read+write) misses
system.l2.demand_misses::.switch_cpus_1.data      4915234                       # number of demand (read+write) misses
system.l2.demand_misses::total                4915819                       # number of demand (read+write) misses
system.l2.overall_misses::.switch_cpus_1.inst          585                       # number of overall misses
system.l2.overall_misses::.switch_cpus_1.data      4915234                       # number of overall misses
system.l2.overall_misses::total               4915819                       # number of overall misses
system.l2.demand_miss_latency::.switch_cpus_1.inst     59463500                       # number of demand (read+write) miss cycles
system.l2.demand_miss_latency::.switch_cpus_1.data 323325510500                       # number of demand (read+write) miss cycles
system.l2.demand_miss_latency::total     323384974000                       # number of demand (read+write) miss cycles
system.l2.overall_miss_latency::.switch_cpus_1.inst     59463500                       # number of overall miss cycles
system.l2.overall_miss_latency::.switch_cpus_1.data 323325510500                       # number of overall miss cycles
system.l2.overall_miss_latency::total    323384974000                       # number of overall miss cycles
system.l2.demand_accesses::.switch_cpus_1.inst          640                       # number of demand (read+write) accesses
system.l2.demand_accesses::.switch_cpus_1.data      5568458                       # number of demand (read+write) accesses
system.l2.demand_accesses::total              5569098                       # number of demand (read+write) accesses
system.l2.overall_accesses::.switch_cpus_1.inst          640                       # number of overall (read+write) accesses
system.l2.overall_accesses::.switch_cpus_1.data      5568458                       # number of overall (read+write) accesses
system.l2.overall_accesses::total             5569098                       # number of overall (read+write) accesses
[...]
system.cpu.dcache.overall_misses::total      24281188                       # number of overall misses
system.cpu.dcache.demand_miss_latency::.switch_cpus.data  33451654000                       # number of demand (read+write) miss cycles
system.cpu.dcache.demand_miss_latency::.switch_cpus_1.data 511571419220                       # number of demand (read+write) miss cycles
system.cpu.dcache.demand_miss_latency::total 545023073220                       # number of demand (read+write) miss cycles
system.cpu.dcache.overall_miss_latency::.switch_cpus.data  33451654000                       # number of overall miss cycles
system.cpu.dcache.overall_miss_latency::.switch_cpus_1.data 511571419220                       # number of overall miss cycles
system.cpu.dcache.overall_miss_latency::total 545023073220                       # number of overall miss cycles
system.cpu.dcache.demand_accesses::.cpu.data    433795334                       # number of demand (read+write) accesses
system.cpu.dcache.demand_accesses::.switch_cpus.data     21480199                       # number of demand (read+write) accesses
system.cpu.dcache.demand_accesses::.switch_cpus_1.data    168281374                       # number of demand (read+write) accesses
system.cpu.dcache.demand_accesses::total    623556907                       # number of demand (read+write) accesses
system.cpu.dcache.overall_accesses::.cpu.data    433795334                       # number of overall (read+write) accesses
system.cpu.dcache.overall_accesses::.switch_cpus.data     21480199                       # number of overall (read+write) accesses
system.cpu.dcache.overall_accesses::.switch_cpus_1.data    168281374                       # number of overall (read+write) accesses
system.cpu.dcache.overall_accesses::total    623556907                       # number of overall (read+write) accesses
system.cpu.dcache.demand_miss_rate::.cpu.data     0.034799                       # miss rate for demand accesses
system.cpu.dcache.demand_miss_rate::.switch_cpus.data     0.027682                       # miss rate for demand accesses
system.cpu.dcache.demand_miss_rate::.switch_cpus_1.data     0.051051                       # miss rate for demand accesses
system.cpu.dcache.demand_miss_rate::total     0.038940                       # miss rate for demand accesses
system.cpu.dcache.overall_miss_rate::.cpu.data     0.034799                       # miss rate for overall accesses
system.cpu.dcache.overall_miss_rate::.switch_cpus.data     0.027682                       # miss rate for overall accesses
system.cpu.dcache.overall_miss_rate::.switch_cpus_1.data     0.051051                       # miss rate for overall accesses
system.cpu.dcache.overall_miss_rate::total     0.038940                       # miss rate for overall accesses
system.cpu.dcache.demand_avg_miss_latency::.switch_cpus.data 56258.331539                       # average overall miss latency
system.cpu.dcache.demand_avg_miss_latency::.switch_cpus_1.data 59547.927203                       # average overall miss latency
system.cpu.dcache.demand_avg_miss_latency::total 22446.310008                       # average overall miss latency
system.cpu.dcache.overall_avg_miss_latency::.switch_cpus.data 56258.331539                       # average overall miss latency
system.cpu.dcache.overall_avg_miss_latency::.switch_cpus_1.data 59547.927203                       # average overall miss latency
system.cpu.dcache.overall_avg_miss_latency::total 22446.310008                       # average overall miss latency
system.cpu.dcache.blocked_cycles::no_mshrs     41164845                       # number of cycles access was blocked
system.cpu.dcache.blocked_cycles::no_targets          449                       # number of cycles access was blocked
system.cpu.dcache.blocked::no_mshrs           1228498                       # number of cycles access was blocked
system.cpu.dcache.blocked::no_targets              12                       # number of cycles access was blocked
system.cpu.dcache.avg_blocked_cycles::no_mshrs    33.508272                       # average number of cycles each access was blocked
system.cpu.dcache.avg_blocked_cycles::no_targets    37.416667                       # average number of cycles each access was blocked
system.cpu.dcache.writebacks::.writebacks      5763113                       # number of writebacks
system.cpu.dcache.writebacks::total           5763113                       # number of writebacks
system.cpu.dcache.demand_mshr_hits::.switch_cpus_1.data      2822713                       # number of demand (read+write) MSHR hits
system.cpu.dcache.demand_mshr_hits::total      2822713                       # number of demand (read+write) MSHR hits
system.cpu.dcache.overall_mshr_hits::.switch_cpus_1.data      2822713                       # number of overall MSHR hits
system.cpu.dcache.overall_mshr_hits::total      2822713                       # number of overall MSHR hits
system.cpu.dcache.demand_mshr_misses::.switch_cpus.data       594608                       # number of demand (read+write) MSHR misses
system.cpu.dcache.demand_mshr_misses::.switch_cpus_1.data      5768206                       # number of demand (read+write) MSHR misses
system.cpu.dcache.demand_mshr_misses::total      6362814                       # number of demand (read+write) MSHR misses
system.cpu.dcache.overall_mshr_misses::.switch_cpus.data       594608                       # number of overall MSHR misses
system.cpu.dcache.overall_mshr_misses::.switch_cpus_1.data      5768206                       # number of overall MSHR misses
system.cpu.dcache.overall_mshr_misses::total      6362814                       # number of overall MSHR misses
system.cpu.dcache.demand_mshr_miss_latency::.switch_cpus.data  32857046000                       # number of demand (read+write) MSHR miss cycles
system.cpu.dcache.demand_mshr_miss_latency::.switch_cpus_1.data 342162991220                       # number of demand (read+write) MSHR miss cycles
system.cpu.dcache.demand_mshr_miss_latency::total 375020037220                       # number of demand (read+write) MSHR miss cycles
system.cpu.dcache.overall_mshr_miss_latency::.switch_cpus.data  32857046000                       # number of overall MSHR miss cycles
system.cpu.dcache.overall_mshr_miss_latency::.switch_cpus_1.data 342162991220                       # number of overall MSHR miss cycles
system.cpu.dcache.overall_mshr_miss_latency::total 375020037220                       # number of overall MSHR miss cycles
system.cpu.dcache.demand_mshr_miss_rate::.switch_cpus.data     0.027682                       # mshr miss rate for demand accesses
system.cpu.dcache.demand_mshr_miss_rate::.switch_cpus_1.data     0.034277                       # mshr miss rate for demand accesses
system.cpu.dcache.demand_mshr_miss_rate::total     0.010204                       # mshr miss rate for demand accesses
system.cpu.dcache.overall_mshr_miss_rate::.switch_cpus.data     0.027682                       # mshr miss rate for overall accesses
system.cpu.dcache.overall_mshr_miss_rate::.switch_cpus_1.data     0.034277                       # mshr miss rate for overall accesses
system.cpu.dcache.overall_mshr_miss_rate::total     0.010204                       # mshr miss rate for overall accesses
system.cpu.dcache.demand_avg_mshr_miss_latency::.switch_cpus.data 55258.331539                       # average overall mshr miss latency
system.cpu.dcache.demand_avg_mshr_miss_latency::.switch_cpus_1.data 59318.788410                       # average overall mshr miss latency
system.cpu.dcache.demand_avg_mshr_miss_latency::total 58939.336781                       # average overall mshr miss latency
system.cpu.dcache.overall_avg_mshr_miss_latency::.switch_cpus.data 55258.331539                       # average overall mshr miss latency
system.cpu.dcache.overall_avg_mshr_miss_latency::.switch_cpus_1.data 59318.788410                       # average overall mshr miss latency
system.cpu.dcache.overall_avg_mshr_miss_latency::total 58939.336781                       # average overall mshr miss latency
system.cpu.dcache.replacements               19762740                       # number of replacements
system.cpu.dcache.ReadReq_hits::.cpu.data    311145526                       # number of ReadReq hits
system.cpu.dcache.ReadReq_hits::.switch_cpus.data     17716162                       # number of ReadReq hits
system.cpu.dcache.ReadReq_hits::.switch_cpus_1.data    126029321                       # number of ReadReq hits
system.cpu.dcache.ReadReq_hits::total       454891009                       # number of ReadReq hits
system.cpu.dcache.ReadReq_misses::.cpu.data     10610433                       # number of ReadReq misses
system.cpu.dcache.ReadReq_misses::.switch_cpus.data       451504                       # number of ReadReq misses
system.cpu.dcache.ReadReq_misses::.switch_cpus_1.data      7455691                       # number of ReadReq misses
system.cpu.dcache.ReadReq_misses::total      18517628                       # number of ReadReq misses
system.cpu.dcache.ReadReq_miss_latency::.switch_cpus.data  23916894500                       # number of ReadReq miss cycles
system.cpu.dcache.ReadReq_miss_latency::.switch_cpus_1.data 438022155500                       # number of ReadReq miss cycles
system.cpu.dcache.ReadReq_miss_latency::total 461939050000                       # number of ReadReq miss cycles
system.cpu.dcache.ReadReq_accesses::.cpu.data    321755959                       # number of ReadReq accesses(hits+misses)
system.cpu.dcache.ReadReq_accesses::.switch_cpus.data     18167666                       # number of ReadReq accesses(hits+misses)
system.cpu.dcache.ReadReq_accesses::.switch_cpus_1.data    133485012                       # number of ReadReq accesses(hits+misses)
system.cpu.dcache.ReadReq_accesses::total    473408637                       # number of ReadReq accesses(hits+misses)
system.cpu.dcache.ReadReq_miss_rate::.cpu.data     0.032977                       # miss rate for ReadReq accesses
system.cpu.dcache.ReadReq_miss_rate::.switch_cpus.data     0.024852                       # miss rate for ReadReq accesses
system.cpu.dcache.ReadReq_miss_rate::.switch_cpus_1.data     0.055854                       # miss rate for ReadReq accesses
system.cpu.dcache.ReadReq_miss_rate::total     0.039116                       # miss rate for ReadReq accesses
system.cpu.dcache.ReadReq_avg_miss_latency::.switch_cpus.data 52971.611547                       # average ReadReq miss latency
system.cpu.dcache.ReadReq_avg_miss_latency::.switch_cpus_1.data 58750.041478                       # average ReadReq miss latency
system.cpu.dcache.ReadReq_avg_miss_latency::total 24945.908299                       # average ReadReq miss latency
system.cpu.dcache.ReadReq_mshr_hits::.switch_cpus_1.data      2822693                       # number of ReadReq MSHR hits
system.cpu.dcache.ReadReq_mshr_hits::total      2822693                       # number of ReadReq MSHR hits
system.cpu.dcache.ReadReq_mshr_misses::.switch_cpus.data       451504                       # number of ReadReq MSHR misses
system.cpu.dcache.ReadReq_mshr_misses::.switch_cpus_1.data      4632998                       # number of ReadReq MSHR misses
system.cpu.dcache.ReadReq_mshr_misses::total      5084502                       # number of ReadReq MSHR misses
system.cpu.dcache.ReadReq_mshr_miss_latency::.switch_cpus.data  23465390500                       # number of ReadReq MSHR miss cycles
system.cpu.dcache.ReadReq_mshr_miss_latency::.switch_cpus_1.data 269748980500                       # number of ReadReq MSHR miss cycles
system.cpu.dcache.ReadReq_mshr_miss_latency::total 293214371000                       # number of ReadReq MSHR miss cycles
system.cpu.dcache.ReadReq_mshr_miss_rate::.switch_cpus.data     0.024852                       # mshr miss rate for ReadReq accesses
system.cpu.dcache.ReadReq_mshr_miss_rate::.switch_cpus_1.data     0.034708                       # mshr miss rate for ReadReq accesses
system.cpu.dcache.ReadReq_mshr_miss_rate::total     0.010740                       # mshr miss rate for ReadReq accesses
system.cpu.dcache.ReadReq_avg_mshr_miss_latency::.switch_cpus.data 51971.611547                       # average ReadReq mshr miss latency
system.cpu.dcache.ReadReq_avg_mshr_miss_latency::.switch_cpus_1.data 58223.418292                       # average ReadReq mshr miss latency
system.cpu.dcache.ReadReq_avg_mshr_miss_latency::total 57668.257580                       # average ReadReq mshr miss latency
system.cpu.dcache.WriteReq_hits::.cpu.data    107554147                       # number of WriteReq hits
system.cpu.dcache.WriteReq_hits::.switch_cpus.data      3169429                       # number of WriteReq hits
system.cpu.dcache.WriteReq_hits::.switch_cpus_1.data     33661134                       # number of WriteReq hits
system.cpu.dcache.WriteReq_hits::total      144384710                       # number of WriteReq hits
system.cpu.dcache.WriteReq_misses::.cpu.data      4485228                       # number of WriteReq misses
system.cpu.dcache.WriteReq_misses::.switch_cpus.data       143104                       # number of WriteReq misses
system.cpu.dcache.WriteReq_misses::.switch_cpus_1.data      1135228                       # number of WriteReq misses
system.cpu.dcache.WriteReq_misses::total      5763560                       # number of WriteReq misses
system.cpu.dcache.WriteReq_miss_latency::.switch_cpus.data   9534759500                       # number of WriteReq miss cycles
system.cpu.dcache.WriteReq_miss_latency::.switch_cpus_1.data  73549263720                       # number of WriteReq miss cycles
system.cpu.dcache.WriteReq_miss_latency::total  83084023220                       # number of WriteReq miss cycles
system.cpu.dcache.WriteReq_accesses::.cpu.data    112039375                       # number of WriteReq accesses(hits+misses)
system.cpu.dcache.WriteReq_accesses::.switch_cpus.data      3312533                       # number of WriteReq accesses(hits+misses)
system.cpu.dcache.WriteReq_accesses::.switch_cpus_1.data     34796362                       # number of WriteReq accesses(hits+misses)
system.cpu.dcache.WriteReq_accesses::total    150148270                       # number of WriteReq accesses(hits+misses)
system.cpu.dcache.WriteReq_miss_rate::.cpu.data     0.040033                       # miss rate for WriteReq accesses
system.cpu.dcache.WriteReq_miss_rate::.switch_cpus.data     0.043201                       # miss rate for WriteReq accesses
system.cpu.dcache.WriteReq_miss_rate::.switch_cpus_1.data     0.032625                       # miss rate for WriteReq accesses
system.cpu.dcache.WriteReq_miss_rate::total     0.038386                       # miss rate for WriteReq accesses
system.cpu.dcache.WriteReq_avg_miss_latency::.switch_cpus.data 66628.183000                       # average WriteReq miss latency
system.cpu.dcache.WriteReq_avg_miss_latency::.switch_cpus_1.data 64788.098708                       # average WriteReq miss latency
system.cpu.dcache.WriteReq_avg_miss_latency::total 14415.400069                       # average WriteReq miss latency
system.cpu.dcache.WriteReq_mshr_hits::.switch_cpus_1.data           20                       # number of WriteReq MSHR hits
system.cpu.dcache.WriteReq_mshr_hits::total           20                       # number of WriteReq MSHR hits
system.cpu.dcache.WriteReq_mshr_misses::.switch_cpus.data       143104                       # number of WriteReq MSHR misses
system.cpu.dcache.WriteReq_mshr_misses::.switch_cpus_1.data      1135208                       # number of WriteReq MSHR misses
system.cpu.dcache.WriteReq_mshr_misses::total      1278312                       # number of WriteReq MSHR misses
system.cpu.dcache.WriteReq_mshr_miss_latency::.switch_cpus.data   9391655500                       # number of WriteReq MSHR miss cycles
system.cpu.dcache.WriteReq_mshr_miss_latency::.switch_cpus_1.data  72414010720                       # number of WriteReq MSHR miss cycles
system.cpu.dcache.WriteReq_mshr_miss_latency::total  81805666220                       # number of WriteReq MSHR miss cycles
system.cpu.dcache.WriteReq_mshr_miss_rate::.switch_cpus.data     0.043201                       # mshr miss rate for WriteReq accesses
system.cpu.dcache.WriteReq_mshr_miss_rate::.switch_cpus_1.data     0.032624                       # mshr miss rate for WriteReq accesses
system.cpu.dcache.WriteReq_mshr_miss_rate::total     0.008514                       # mshr miss rate for WriteReq accesses
system.cpu.dcache.WriteReq_avg_mshr_miss_latency::.switch_cpus.data 65628.183000                       # average WriteReq mshr miss latency
system.cpu.dcache.WriteReq_avg_mshr_miss_latency::.switch_cpus_1.data 63789.200499                       # average WriteReq mshr miss latency
system.cpu.dcache.WriteReq_avg_mshr_miss_latency::total 63995.070233                       # average WriteReq mshr miss latency
system.cpu.dcache.power_state.pwrStateResidencyTicks::UNDEFINED 1514528125000                       # Cumulative time (in ticks) in various power states
system.cpu.dcache.tags.tagsinuse           511.996118                       # Cycle average of tags in use
system.cpu.dcache.tags.total_refs           620909989                       # Total number of references to valid blocks.
system.cpu.dcache.tags.sampled_refs          19763252                       # Sample count of references to valid blocks.
system.cpu.dcache.tags.avg_refs             31.417400                       # Average number of references to valid blocks.
system.cpu.dcache.tags.warmup_cycle              1500                       # Cycle when the warmup percentage was hit.
system.cpu.dcache.tags.occ_blocks::.cpu.data   346.973887                       # Average occupied blocks per requestor
system.cpu.dcache.tags.occ_blocks::.switch_cpus.data    41.111913                       # Average occupied blocks per requestor
system.cpu.dcache.tags.occ_blocks::.switch_cpus_1.data   123.910319                       # Average occupied blocks per requestor
system.cpu.dcache.tags.occ_percent::.cpu.data     0.677683                       # Average percentage of cache occupancy
system.cpu.dcache.tags.occ_percent::.switch_cpus.data     0.080297                       # Average percentage of cache occupancy
system.cpu.dcache.tags.occ_percent::.switch_cpus_1.data     0.242012                       # Average percentage of cache occupancy
system.cpu.dcache.tags.occ_percent::total     0.999992                       # Average percentage of cache occupancy
system.cpu.dcache.tags.occ_task_id_blocks::1024          512                       # Occupied blocks per task id
system.cpu.dcache.tags.age_task_id_blocks_1024::0          113                       # Occupied blocks per task id
system.cpu.dcache.tags.age_task_id_blocks_1024::1          399                       # Occupied blocks per task id
system.cpu.dcache.tags.occ_task_id_percent::1024            1                       # Percentage of cache occupancy per task id
system.cpu.dcache.tags.tag_accesses        2513990880                       # Number of tag accesses
system.cpu.dcache.tags.data_accesses       2513990880                       # Number of data accesses
system.cpu.dcache.tags.power_state.pwrStateResidencyTicks::UNDEFINED 1514528125000                       # Cumulative time (in ticks) in various power states
system.cpu.power_state.numTransitions               2                       # Number of power state transitions
system.cpu.power_state.pwrStateResidencyTicks::ON 1026110788500                       # Cumulative time (in ticks) in various power states
system.cpu.power_state.pwrStateResidencyTicks::OFF 488417336500                       # Cumulative time (in ticks) in various power states

---------- End Simulation Statistics   ----------
