
---------- Begin Simulation Statistics ----------
final_tick                               1646035845500                       # Number of ticks from beginning of simulation (restored from checkpoints and never reset)
host_inst_rate                                 173772                       # Simulator instruction rate (inst/s)
host_mem_usage                                4596820                       # Number of bytes of host memory used
host_op_rate                                   336176                       # Simulator op (including micro ops) rate (op/s)
host_seconds                                 11797.08                       # Real time elapsed on the host
host_tick_rate                               32767239                       # Simulator tick rate (ticks/s)
sim_freq                                 1000000000000                       # Frequency of simulated ticks
sim_insts                                  2050000005                       # Number of instructions simulated
sim_ops                                    3965900578                       # Number of ops (including micro ops) simulated
sim_seconds                                  0.386558                       # Number of seconds simulated
sim_ticks                                386557793500                       # Number of ticks simulated
system.cpu.committedInsts                           0                       # Number of instructions committed
system.cpu.committedOps                             0                       # Number of ops (including micro ops) committed
system.cpu.dtb.rdAccesses                           0                       # TLB accesses on read requests
system.cpu.dtb.rdMisses                             0                       # TLB misses on read requests
system.cpu.dtb.wrAccesses                           0                       # TLB accesses on write requests
system.cpu.dtb.wrMisses                             0                       # TLB misses on write requests
system.cpu.idle_fraction                            0                       # Percentage of idle cycles
system.cpu.itb.rdAccesses                           0                       # TLB accesses on read requests
system.cpu.itb.rdMisses                             0                       # TLB misses on read requests
system.cpu.itb.wrAccesses                           0                       # TLB accesses on write requests
system.cpu.itb.wrMisses                             0                       # TLB misses on write requests
system.cpu.not_idle_fraction                        1                       # Percentage of non-idle cycles
system.cpu.numCycles                                0                       # number of cpu cycles simulated
system.cpu.numWorkItemsCompleted                    0                       # number of work items this cpu completed
system.cpu.numWorkItemsStarted                      0                       # number of work items this cpu started
system.cpu.num_busy_cycles                          0                       # Number of busy cycles
system.cpu.num_conditional_control_insts            0                       # number of instructions that are conditional controls
system.cpu.num_fp_alu_accesses                      0                       # Number of float alu accesses
system.cpu.num_fp_insts                             0                       # number of float instructions
system.cpu.num_fp_register_reads                    0                       # number of times the floating registers were read
system.cpu.num_fp_register_writes                   0                       # number of times the floating registers were written
system.cpu.num_func_calls                           0                       # number of times a function call or return occured
system.cpu.num_idle_cycles                          0                       # Number of idle cycles
system.cpu.num_int_alu_accesses                     0                       # Number of integer alu accesses
system.cpu.num_int_insts                            0                       # number of integer instructions
system.cpu.num_int_register_reads                   0                       # number of times the integer registers were read
system.cpu.num_int_register_writes                  0                       # number of times the integer registers were written
system.cpu.num_load_insts                           0                       # Number of load instructions
system.cpu.num_mem_refs                             0                       # number of memory refs
system.cpu.num_store_insts                          0                       # Number of store instructions
system.cpu.num_vec_alu_accesses                     0                       # Number of vector alu accesses
system.cpu.num_vec_insts                            0                       # number of vector instructions
system.cpu.num_vec_register_reads                   0                       # number of times the vector registers were read
system.cpu.num_vec_register_writes                  0                       # number of times the vector registers were written
system.cpu.op_class::No_OpClass                     0                       # Class of executed instruction
system.cpu.op_class::IntAlu                         0                       # Class of executed instruction
system.cpu.op_class::IntMult                        0                       # Class of executed instruction
system.cpu.op_class::IntDiv                         0                       # Class of executed instruction
system.cpu.op_class::FloatAdd                       0                       # Class of executed instruction
system.cpu.op_class::FloatCmp                       0                       # Class of executed instruction
system.cpu.op_class::FloatCvt                       0                       # Class of executed instruction
system.cpu.op_class::FloatMult                      0                       # Class of executed instruction
system.cpu.op_class::FloatMultAcc                   0                       # Class of executed instruction
system.cpu.op_class::FloatDiv                       0                       # Class of executed instruction
system.cpu.op_class::FloatMisc                      0                       # Class of executed instruction
system.cpu.op_class::FloatSqrt                      0                       # Class of executed instruction
system.cpu.op_class::SimdAdd                        0                       # Class of executed instruction
system.cpu.op_class::SimdAddAcc                     0                       # Class of executed instruction
system.cpu.op_class::SimdAlu                        0                       # Class of executed instruction
system.cpu.op_class::SimdCmp                        0                       # Class of executed instruction
system.cpu.op_class::SimdCvt                        0                       # Class of executed instruction
system.cpu.op_class::SimdMisc                       0                       # Class of executed instruction
system.cpu.op_class::SimdMult                       0                       # Class of executed instruction
system.cpu.op_class::SimdMultAcc                    0                       # Class of executed instruction
system.cpu.op_class::SimdShift                      0                       # Class of executed instruction
system.cpu.op_class::SimdShiftAcc                   0                       # Class of executed instruction
system.cpu.op_class::SimdDiv                        0                       # Class of executed instruction
system.cpu.op_class::SimdSqrt                       0                       # Class of executed instruction
system.cpu.op_class::SimdFloatAdd                   0                       # Class of executed instruction
system.cpu.op_class::SimdFloatAlu                   0                       # Class of executed instruction
system.cpu.op_class::SimdFloatCmp                   0                       # Class of executed instruction
system.cpu.op_class::SimdFloatCvt                   0                       # Class of executed instruction
system.cpu.op_class::SimdFloatDiv                   0                       # Class of executed instruction
system.cpu.op_class::SimdFloatMisc                  0                       # Class of executed instruction
system.cpu.op_class::SimdFloatMult                  0                       # Class of executed instruction
system.cpu.op_class::SimdFloatMultAcc               0                       # Class of executed instruction
system.cpu.op_class::SimdFloatSqrt                  0                       # Class of executed instruction
system.cpu.op_class::SimdReduceAdd                  0                       # Class of executed instruction
system.cpu.op_class::SimdReduceAlu                  0                       # Class of executed instruction
system.cpu.op_class::SimdReduceCmp                  0                       # Class of executed instruction
system.cpu.op_class::SimdFloatReduceAdd             0                       # Class of executed instruction
system.cpu.op_class::SimdFloatReduceCmp             0                       # Class of executed instruction
system.cpu.op_class::SimdAes                        0                       # Class of executed instruction
system.cpu.op_class::SimdAesMix                     0                       # Class of executed instruction
system.cpu.op_class::SimdSha1Hash                   0                       # Class of executed instruction
system.cpu.op_class::SimdSha1Hash2                  0                       # Class of executed instruction
system.cpu.op_class::SimdSha256Hash                 0                       # Class of executed instruction
system.cpu.op_class::SimdSha256Hash2                0                       # Class of executed instruction
system.cpu.op_class::SimdShaSigma2                  0                       # Class of executed instruction
system.cpu.op_class::SimdShaSigma3                  0                       # Class of executed instruction
system.cpu.op_class::SimdPredAlu                    0                       # Class of executed instruction
system.cpu.op_class::MemRead                        0                       # Class of executed instruction
system.cpu.op_class::MemWrite                       0                       # Class of executed instruction
system.cpu.op_class::FloatMemRead                   0                       # Class of executed instruction
system.cpu.op_class::FloatMemWrite                  0                       # Class of executed instruction
system.cpu.op_class::IprAccess                      0                       # Class of executed instruction
system.cpu.op_class::InstPrefetch                   0                       # Class of executed instruction
system.cpu.op_class::total                          0                       # Class of executed instruction
system.cpu.workload.numSyscalls                   505                       # Number of system calls
system.membus.snoop_filter.hit_multi_requests            0                       # Number of requests hitting in the snoop filter with multiple (>1) holders of the requested data.
system.membus.snoop_filter.hit_multi_snoops            0                       # Number of snoops hitting in the snoop filter with multiple (>1) holders of the requested data.
system.membus.snoop_filter.hit_single_requests      1051222                       # Number of requests hitting in the snoop filter with a single holder of the requested data.
system.membus.snoop_filter.hit_single_snoops            0                       # Number of snoops hitting in the snoop filter with a single holder of the requested data.
system.membus.snoop_filter.tot_requests       2102362                       # Total number of requests made to the snoop filter.
system.membus.snoop_filter.tot_snoops               0                       # Total number of snoops made to the snoop filter.
system.switch_cpus.committedInsts                   0                       # Number of instructions committed
system.switch_cpus.committedOps                     0                       # Number of ops (including micro ops) committed
system.switch_cpus.dtb.rdAccesses                   0                       # TLB accesses on read requests
system.switch_cpus.dtb.rdMisses                     0                       # TLB misses on read requests
system.switch_cpus.dtb.wrAccesses                   0                       # TLB accesses on write requests
system.switch_cpus.dtb.wrMisses                     0                       # TLB misses on write requests
system.switch_cpus.idle_fraction                    0                       # Percentage of idle cycles
system.switch_cpus.itb.rdAccesses                   0                       # TLB accesses on read requests
system.switch_cpus.itb.rdMisses                     0                       # TLB misses on read requests
system.switch_cpus.itb.wrAccesses                   0                       # TLB accesses on write requests
system.switch_cpus.itb.wrMisses                     0                       # TLB misses on write requests
system.switch_cpus.not_idle_fraction                1                       # Percentage of non-idle cycles
system.switch_cpus.numCycles                        0                       # number of cpu cycles simulated
system.switch_cpus.numWorkItemsCompleted            0                       # number of work items this cpu completed
system.switch_cpus.numWorkItemsStarted              0                       # number of work items this cpu started
system.switch_cpus.num_busy_cycles                  0                       # Number of busy cycles
system.switch_cpus.num_conditional_control_insts            0                       # number of instructions that are conditional controls
system.switch_cpus.num_fp_alu_accesses              0                       # Number of float alu accesses
system.switch_cpus.num_fp_insts                     0                       # number of float instructions
system.switch_cpus.num_fp_register_reads            0                       # number of times the floating registers were read
system.switch_cpus.num_fp_register_writes            0                       # number of times the floating registers were written
system.switch_cpus.num_func_calls                   0                       # number of times a function call or return occured
system.switch_cpus.num_idle_cycles                  0                       # Number of idle cycles
system.switch_cpus.num_int_alu_accesses             0                       # Number of integer alu accesses
system.switch_cpus.num_int_insts                    0                       # number of integer instructions
system.switch_cpus.num_int_register_reads            0                       # number of times the integer registers were read
system.switch_cpus.num_int_register_writes            0                       # number of times the integer registers were written
system.switch_cpus.num_load_insts                   0                       # Number of load instructions
system.switch_cpus.num_mem_refs                     0                       # number of memory refs
system.switch_cpus.num_store_insts                  0                       # Number of store instructions
system.switch_cpus.num_vec_alu_accesses             0                       # Number of vector alu accesses
system.switch_cpus.num_vec_insts                    0                       # number of vector instructions
system.switch_cpus.num_vec_register_reads            0                       # number of times the vector registers were read
system.switch_cpus.num_vec_register_writes            0                       # number of times the vector registers were written
system.switch_cpus.op_class::No_OpClass             0                       # Class of executed instruction
system.switch_cpus.op_class::IntAlu                 0                       # Class of executed instruction
system.switch_cpus.op_class::IntMult                0                       # Class of executed instruction
system.switch_cpus.op_class::IntDiv                 0                       # Class of executed instruction
system.switch_cpus.op_class::FloatAdd               0                       # Class of executed instruction
system.switch_cpus.op_class::FloatCmp               0                       # Class of executed instruction
system.switch_cpus.op_class::FloatCvt               0                       # Class of executed instruction
system.switch_cpus.op_class::FloatMult              0                       # Class of executed instruction
system.switch_cpus.op_class::FloatMultAcc            0                       # Class of executed instruction
system.switch_cpus.op_class::FloatDiv               0                       # Class of executed instruction
system.switch_cpus.op_class::FloatMisc              0                       # Class of executed instruction
system.switch_cpus.op_class::FloatSqrt              0                       # Class of executed instruction
system.switch_cpus.op_class::SimdAdd                0                       # Class of executed instruction
system.switch_cpus.op_class::SimdAddAcc             0                       # Class of executed instruction
system.switch_cpus.op_class::SimdAlu                0                       # Class of executed instruction
system.switch_cpus.op_class::SimdCmp                0                       # Class of executed instruction
system.switch_cpus.op_class::SimdCvt                0                       # Class of executed instruction
system.switch_cpus.op_class::SimdMisc               0                       # Class of executed instruction
system.switch_cpus.op_class::SimdMult               0                       # Class of executed instruction
system.switch_cpus.op_class::SimdMultAcc            0                       # Class of executed instruction
system.switch_cpus.op_class::SimdShift              0                       # Class of executed instruction
system.switch_cpus.op_class::SimdShiftAcc            0                       # Class of executed instruction
system.switch_cpus.op_class::SimdDiv                0                       # Class of executed instruction
system.switch_cpus.op_class::SimdSqrt               0                       # Class of executed instruction
system.switch_cpus.op_class::SimdFloatAdd            0                       # Class of executed instruction
system.switch_cpus.op_class::SimdFloatAlu            0                       # Class of executed instruction
system.switch_cpus.op_class::SimdFloatCmp            0                       # Class of executed instruction
system.switch_cpus.op_class::SimdFloatCvt            0                       # Class of executed instruction
system.switch_cpus.op_class::SimdFloatDiv            0                       # Class of executed instruction
system.switch_cpus.op_class::SimdFloatMisc            0                       # Class of executed instruction
system.switch_cpus.op_class::SimdFloatMult            0                       # Class of executed instruction
system.switch_cpus.op_class::SimdFloatMultAcc            0                       # Class of executed instruction
system.switch_cpus.op_class::SimdFloatSqrt            0                       # Class of executed instruction
system.switch_cpus.op_class::SimdReduceAdd            0                       # Class of executed instruction
system.switch_cpus.op_class::SimdReduceAlu            0                       # Class of executed instruction
system.switch_cpus.op_class::SimdReduceCmp            0                       # Class of executed instruction
system.switch_cpus.op_class::SimdFloatReduceAdd            0                       # Class of executed instruction
system.switch_cpus.op_class::SimdFloatReduceCmp            0                       # Class of executed instruction
system.switch_cpus.op_class::SimdAes                0                       # Class of executed instruction
system.switch_cpus.op_class::SimdAesMix             0                       # Class of executed instruction
system.switch_cpus.op_class::SimdSha1Hash            0                       # Class of executed instruction
system.switch_cpus.op_class::SimdSha1Hash2            0                       # Class of executed instruction
system.switch_cpus.op_class::SimdSha256Hash            0                       # Class of executed instruction
system.switch_cpus.op_class::SimdSha256Hash2            0                       # Class of executed instruction
system.switch_cpus.op_class::SimdShaSigma2            0                       # Class of executed instruction
system.switch_cpus.op_class::SimdShaSigma3            0                       # Class of executed instruction
system.switch_cpus.op_class::SimdPredAlu            0                       # Class of executed instruction
system.switch_cpus.op_class::MemRead                0                       # Class of executed instruction
system.switch_cpus.op_class::MemWrite               0                       # Class of executed instruction
system.switch_cpus.op_class::FloatMemRead            0                       # Class of executed instruction
system.switch_cpus.op_class::FloatMemWrite            0                       # Class of executed instruction
system.switch_cpus.op_class::IprAccess              0                       # Class of executed instruction
system.switch_cpus.op_class::InstPrefetch            0                       # Class of executed instruction
system.switch_cpus.op_class::total                  0                       # Class of executed instruction
system.switch_cpus_1.branchPred.BTBCorrect            0                       # Number of correct BTB predictions (this stat may not work properly.
system.switch_cpus_1.branchPred.BTBHitPct          nan                       # BTB Hit Percentage
system.switch_cpus_1.branchPred.BTBHits             0                       # Number of BTB hits
system.switch_cpus_1.branchPred.BTBLookups            0                       # Number of BTB lookups
system.switch_cpus_1.branchPred.RASInCorrect          143                       # Number of incorrect RAS predictions.
system.switch_cpus_1.branchPred.condIncorrect     11331986                       # Number of conditional branches incorrect
system.switch_cpus_1.branchPred.condPredicted    217379833                       # Number of conditional branches predicted
system.switch_cpus_1.branchPred.indirectHits    101344613                       # Number of indirect target hits.
system.switch_cpus_1.branchPred.indirectLookups    124642497                       # Number of indirect predictor lookups.
system.switch_cpus_1.branchPred.indirectMisses     23297884                       # Number of indirect misses.
system.switch_cpus_1.branchPred.lookups     242739625                       # Number of BP lookups
system.switch_cpus_1.branchPred.usedRAS      12291015                       # Number of times the RAS was used to get a target.
system.switch_cpus_1.branchPredindirectMispredicted      7557113                       # Number of mispredicted indirect branches.
system.switch_cpus_1.cc_regfile_reads      1018359970                       # number of cc regfile reads
system.switch_cpus_1.cc_regfile_writes      587777982                       # number of cc regfile writes
system.switch_cpus_1.commit.amos                    0                       # Number of atomic instructions committed
system.switch_cpus_1.commit.branchMispredicts     11332972                       # The number of times a branch was mispredicted
system.switch_cpus_1.commit.branches        186020294                       # Number of branches committed
system.switch_cpus_1.commit.bw_lim_events    126486949                       # number cycles where commit BW limit reached
system.switch_cpus_1.commit.commitNonSpecStalls          778                       # The number of times commit has been forced to stall to communicate backwards
system.switch_cpus_1.commit.commitSquashedInsts    387351951                       # The number of squashed insts skipped by commit
system.switch_cpus_1.commit.committedInsts   1000000002                       # Number of instructions committed
system.switch_cpus_1.commit.committedOps   1913177502                       # Number of ops (including micro ops) committed
system.switch_cpus_1.commit.committed_per_cycle::samples    717034726                       # Number of insts commited each cycle
system.switch_cpus_1.commit.committed_per_cycle::mean     2.668180                       # Number of insts commited each cycle
system.switch_cpus_1.commit.committed_per_cycle::stdev     2.980850                       # Number of insts commited each cycle
system.switch_cpus_1.commit.committed_per_cycle::underflows            0      0.00%      0.00% # Number of insts commited each cycle
system.switch_cpus_1.commit.committed_per_cycle::0    258864141     36.10%     36.10% # Number of insts commited each cycle
system.switch_cpus_1.commit.committed_per_cycle::1    104158333     14.53%     50.63% # Number of insts commited each cycle
system.switch_cpus_1.commit.committed_per_cycle::2     64040497      8.93%     59.56% # Number of insts commited each cycle
system.switch_cpus_1.commit.committed_per_cycle::3     78728769     10.98%     70.54% # Number of insts commited each cycle
system.switch_cpus_1.commit.committed_per_cycle::4     32929834      4.59%     75.13% # Number of insts commited each cycle
system.switch_cpus_1.commit.committed_per_cycle::5     23443446      3.27%     78.40% # Number of insts commited each cycle
system.switch_cpus_1.commit.committed_per_cycle::6     14759589      2.06%     80.46% # Number of insts commited each cycle
system.switch_cpus_1.commit.committed_per_cycle::7     13623168      1.90%     82.36% # Number of insts commited each cycle
system.switch_cpus_1.commit.committed_per_cycle::8    126486949     17.64%    100.00% # Number of insts commited each cycle
system.switch_cpus_1.commit.committed_per_cycle::overflows            0      0.00%    100.00% # Number of insts commited each cycle
system.switch_cpus_1.commit.committed_per_cycle::min_value            0                       # Number of insts commited each cycle
system.switch_cpus_1.commit.committed_per_cycle::max_value            8                       # Number of insts commited each cycle
system.switch_cpus_1.commit.committed_per_cycle::total    717034726                       # Number of insts commited each cycle
system.switch_cpus_1.commit.fp_insts        342164187                       # Number of committed floating point instructions.
system.switch_cpus_1.commit.function_calls      9247180                       # Number of function calls committed.
system.switch_cpus_1.commit.int_insts      1644843534                       # Number of committed integer instructions.
system.switch_cpus_1.commit.loads           234446740                       # Number of loads committed
system.switch_cpus_1.commit.membars               140                       # Number of memory barriers committed
system.switch_cpus_1.commit.op_class_0::No_OpClass      5783847      0.30%      0.30% # Class of committed instruction
system.switch_cpus_1.commit.op_class_0::IntAlu   1346449029     70.38%     70.68% # Class of committed instruction
system.switch_cpus_1.commit.op_class_0::IntMult      1181117      0.06%     70.74% # Class of committed instruction
system.switch_cpus_1.commit.op_class_0::IntDiv      5794698      0.30%     71.04% # Class of committed instruction
system.switch_cpus_1.commit.op_class_0::FloatAdd     46866852      2.45%     73.49% # Class of committed instruction
system.switch_cpus_1.commit.op_class_0::FloatCmp            0      0.00%     73.49% # Class of committed instruction
system.switch_cpus_1.commit.op_class_0::FloatCvt          112      0.00%     73.49% # Class of committed instruction
system.switch_cpus_1.commit.op_class_0::FloatMult            0      0.00%     73.49% # Class of committed instruction
system.switch_cpus_1.commit.op_class_0::FloatMultAcc            0      0.00%     73.49% # Class of committed instruction
system.switch_cpus_1.commit.op_class_0::FloatDiv            0      0.00%     73.49% # Class of committed instruction
system.switch_cpus_1.commit.op_class_0::FloatMisc            0      0.00%     73.49% # Class of committed instruction
system.switch_cpus_1.commit.op_class_0::FloatSqrt            0      0.00%     73.49% # Class of committed instruction
system.switch_cpus_1.commit.op_class_0::SimdAdd            0      0.00%     73.49% # Class of committed instruction
system.switch_cpus_1.commit.op_class_0::SimdAddAcc            0      0.00%     73.49% # Class of committed instruction
system.switch_cpus_1.commit.op_class_0::SimdAlu     22244818      1.16%     74.66% # Class of committed instruction
system.switch_cpus_1.commit.op_class_0::SimdCmp       687450      0.04%     74.69% # Class of committed instruction
system.switch_cpus_1.commit.op_class_0::SimdCvt      4362488      0.23%     74.92% # Class of committed instruction
system.switch_cpus_1.commit.op_class_0::SimdMisc     12842429      0.67%     75.59% # Class of committed instruction
system.switch_cpus_1.commit.op_class_0::SimdMult            0      0.00%     75.59% # Class of committed instruction
system.switch_cpus_1.commit.op_class_0::SimdMultAcc            0      0.00%     75.59% # Class of committed instruction
system.switch_cpus_1.commit.op_class_0::SimdShift            0      0.00%     75.59% # Class of committed instruction
system.switch_cpus_1.commit.op_class_0::SimdShiftAcc            0      0.00%     75.59% # Class of committed instruction
system.switch_cpus_1.commit.op_class_0::SimdDiv            0      0.00%     75.59% # Class of committed instruction
system.switch_cpus_1.commit.op_class_0::SimdSqrt            0      0.00%     75.59% # Class of committed instruction
system.switch_cpus_1.commit.op_class_0::SimdFloatAdd     49159879      2.57%     78.16% # Class of committed instruction
system.switch_cpus_1.commit.op_class_0::SimdFloatAlu            0      0.00%     78.16% # Class of committed instruction
system.switch_cpus_1.commit.op_class_0::SimdFloatCmp            0      0.00%     78.16% # Class of committed instruction
system.switch_cpus_1.commit.op_class_0::SimdFloatCvt     45731328      2.39%     80.55% # Class of committed instruction
system.switch_cpus_1.commit.op_class_0::SimdFloatDiv      1922135      0.10%     80.65% # Class of committed instruction
system.switch_cpus_1.commit.op_class_0::SimdFloatMisc            0      0.00%     80.65% # Class of committed instruction
system.switch_cpus_1.commit.op_class_0::SimdFloatMult     22831089      1.19%     81.85% # Class of committed instruction
system.switch_cpus_1.commit.op_class_0::SimdFloatMultAcc            0      0.00%     81.85% # Class of committed instruction
system.switch_cpus_1.commit.op_class_0::SimdFloatSqrt            0      0.00%     81.85% # Class of committed instruction
system.switch_cpus_1.commit.op_class_0::SimdReduceAdd            0      0.00%     81.85% # Class of committed instruction
system.switch_cpus_1.commit.op_class_0::SimdReduceAlu            0      0.00%     81.85% # Class of committed instruction
system.switch_cpus_1.commit.op_class_0::SimdReduceCmp            0      0.00%     81.85% # Class of committed instruction
system.switch_cpus_1.commit.op_class_0::SimdFloatReduceAdd            0      0.00%     81.85% # Class of committed instruction
system.switch_cpus_1.commit.op_class_0::SimdFloatReduceCmp            0      0.00%     81.85% # Class of committed instruction
system.switch_cpus_1.commit.op_class_0::SimdAes            0      0.00%     81.85% # Class of committed instruction
system.switch_cpus_1.commit.op_class_0::SimdAesMix            0      0.00%     81.85% # Class of committed instruction
system.switch_cpus_1.commit.op_class_0::SimdSha1Hash            0      0.00%     81.85% # Class of committed instruction
system.switch_cpus_1.commit.op_class_0::SimdSha1Hash2            0      0.00%     81.85% # Class of committed instruction
system.switch_cpus_1.commit.op_class_0::SimdSha256Hash            0      0.00%     81.85% # Class of committed instruction
system.switch_cpus_1.commit.op_class_0::SimdSha256Hash2            0      0.00%     81.85% # Class of committed instruction
system.switch_cpus_1.commit.op_class_0::SimdShaSigma2            0      0.00%     81.85% # Class of committed instruction
system.switch_cpus_1.commit.op_class_0::SimdShaSigma3            0      0.00%     81.85% # Class of committed instruction
system.switch_cpus_1.commit.op_class_0::SimdPredAlu            0      0.00%     81.85% # Class of committed instruction
system.switch_cpus_1.commit.op_class_0::MemRead    174644765      9.13%     90.97% # Class of committed instruction
system.switch_cpus_1.commit.op_class_0::MemWrite    102526781      5.36%     96.33% # Class of committed instruction
system.switch_cpus_1.commit.op_class_0::FloatMemRead     59801975      3.13%     99.46% # Class of committed instruction
system.switch_cpus_1.commit.op_class_0::FloatMemWrite     10346710      0.54%    100.00% # Class of committed instruction
system.switch_cpus_1.commit.op_class_0::IprAccess            0      0.00%    100.00% # Class of committed instruction
system.switch_cpus_1.commit.op_class_0::InstPrefetch            0      0.00%    100.00% # Class of committed instruction
system.switch_cpus_1.commit.op_class_0::total   1913177502                       # Class of committed instruction
system.switch_cpus_1.commit.refs            347320231                       # Number of memory references committed
system.switch_cpus_1.commit.swp_count               0                       # Number of s/w prefetches committed
system.switch_cpus_1.commit.vec_insts               0                       # Number of committed Vector instructions.
system.switch_cpus_1.committedInsts        1000000002                       # Number of Instructions Simulated
system.switch_cpus_1.committedOps          1913177502                       # Number of Ops (including micro ops) Simulated
system.switch_cpus_1.cpi                     0.773116                       # CPI: Cycles Per Instruction
system.switch_cpus_1.cpi_total               0.773116                       # CPI: Total CPI of All Threads
system.switch_cpus_1.decode.BlockedCycles    187645659                       # Number of cycles decode is blocked
system.switch_cpus_1.decode.DecodedInsts   2462250758                       # Number of instructions handled by decode
system.switch_cpus_1.decode.IdleCycles      189017860                       # Number of cycles decode is idle
system.switch_cpus_1.decode.RunCycles       365960663                       # Number of cycles decode is running
system.switch_cpus_1.decode.SquashCycles     11344902                       # Number of cycles decode is squashing
system.switch_cpus_1.decode.UnblockCycles     18668953                       # Number of cycles decode is unblocking
system.switch_cpus_1.dtb.rdAccesses         260054335                       # TLB accesses on read requests
system.switch_cpus_1.dtb.rdMisses              944144                       # TLB misses on read requests
system.switch_cpus_1.dtb.wrAccesses         121775514                       # TLB accesses on write requests
system.switch_cpus_1.dtb.wrMisses              189487                       # TLB misses on write requests
system.switch_cpus_1.fetch.Branches         242739625                       # Number of branches that fetch encountered
system.switch_cpus_1.fetch.CacheLines       192684458                       # Number of cache lines fetched
system.switch_cpus_1.fetch.Cycles           555832481                       # Number of cycles fetch has run and was not squashing or blocked
system.switch_cpus_1.fetch.IcacheSquashes      3246446                       # Number of outstanding Icache misses that were squashed
system.switch_cpus_1.fetch.IcacheWaitRetryStallCycles          311                       # Number of stall cycles due to full MSHR
system.switch_cpus_1.fetch.Insts           1326738378                       # Number of instructions fetch has processed
system.switch_cpus_1.fetch.MiscStallCycles         2247                       # Number of cycles fetch has spent waiting on interrupts, or bad addresses, or out of MSHRs
system.switch_cpus_1.fetch.PendingTrapStallCycles        11053                       # Number of stall cycles due to pending traps
system.switch_cpus_1.fetch.SquashCycles      22689804                       # Number of cycles fetch has spent squashing
system.switch_cpus_1.fetch.TlbCycles                6                       # Number of cycles fetch has spent waiting for tlb
system.switch_cpus_1.fetch.branchRate        0.313976                       # Number of branch fetches per cycle
system.switch_cpus_1.fetch.icacheStallCycles    205447039                       # Number of cycles fetch is stalled on an Icache miss
system.switch_cpus_1.fetch.predictedBranches    113635628                       # Number of branches that fetch has predicted taken
system.switch_cpus_1.fetch.rate              1.716093                       # Number of inst fetches per cycle
system.switch_cpus_1.fetch.rateDist::samples    772638039                       # Number of instructions fetched each cycle (Total)
system.switch_cpus_1.fetch.rateDist::mean     3.272760                       # Number of instructions fetched each cycle (Total)
system.switch_cpus_1.fetch.rateDist::stdev     3.542824                       # Number of instructions fetched each cycle (Total)
system.switch_cpus_1.fetch.rateDist::underflows            0      0.00%      0.00% # Number of instructions fetched each cycle (Total)
system.switch_cpus_1.fetch.rateDist::0      359863664     46.58%     46.58% # Number of instructions fetched each cycle (Total)
system.switch_cpus_1.fetch.rateDist::1       28989031      3.75%     50.33% # Number of instructions fetched each cycle (Total)
system.switch_cpus_1.fetch.rateDist::2       25652711      3.32%     53.65% # Number of instructions fetched each cycle (Total)
system.switch_cpus_1.fetch.rateDist::3       34022433      4.40%     58.05% # Number of instructions fetched each cycle (Total)
system.switch_cpus_1.fetch.rateDist::4       20260565      2.62%     60.67% # Number of instructions fetched each cycle (Total)
system.switch_cpus_1.fetch.rateDist::5       33340441      4.32%     64.99% # Number of instructions fetched each cycle (Total)
system.switch_cpus_1.fetch.rateDist::6       24140078      3.12%     68.11% # Number of instructions fetched each cycle (Total)
system.switch_cpus_1.fetch.rateDist::7       17240507      2.23%     70.34% # Number of instructions fetched each cycle (Total)
system.switch_cpus_1.fetch.rateDist::8      229128609     29.66%    100.00% # Number of instructions fetched each cycle (Total)
system.switch_cpus_1.fetch.rateDist::overflows            0      0.00%    100.00% # Number of instructions fetched each cycle (Total)
system.switch_cpus_1.fetch.rateDist::min_value            0                       # Number of instructions fetched each cycle (Total)
system.switch_cpus_1.fetch.rateDist::max_value            8                       # Number of instructions fetched each cycle (Total)
system.switch_cpus_1.fetch.rateDist::total    772638039                       # Number of instructions fetched each cycle (Total)
system.switch_cpus_1.fp_regfile_reads       588425349                       # number of floating regfile reads
system.switch_cpus_1.fp_regfile_writes      342159378                       # number of floating regfile writes
system.switch_cpus_1.idleCycles                477548                       # Total number of cycles that the CPU has spent unscheduled due to idling
system.switch_cpus_1.iew.branchMispredicts     14226935                       # Number of branch mispredicts detected at execute
system.switch_cpus_1.iew.exec_branches      201799847                       # Number of branches executed
system.switch_cpus_1.iew.exec_nop                   0                       # number of nop insts executed
system.switch_cpus_1.iew.exec_rate           2.758005                       # Inst execution rate
system.switch_cpus_1.iew.exec_refs          382392033                       # number of memory reference insts executed
system.switch_cpus_1.iew.exec_stores        121722143                       # Number of stores executed
system.switch_cpus_1.iew.exec_swp                   0                       # number of swp insts executed
system.switch_cpus_1.iew.iewBlockCycles      95497885                       # Number of cycles IEW is blocking
system.switch_cpus_1.iew.iewDispLoadInsts    279119174                       # Number of dispatched load instructions
system.switch_cpus_1.iew.iewDispNonSpecInsts       105135                       # Number of dispatched non-speculative instructions
system.switch_cpus_1.iew.iewDispSquashedInsts       922821                       # Number of squashed instructions skipped by dispatch
system.switch_cpus_1.iew.iewDispStoreInsts    132446512                       # Number of dispatched store instructions
system.switch_cpus_1.iew.iewDispatchedInsts   2300609953                       # Number of instructions dispatched to IQ
system.switch_cpus_1.iew.iewExecLoadInsts    260669890                       # Number of load instructions executed
system.switch_cpus_1.iew.iewExecSquashedInsts     28844433                       # Number of squashed instructions skipped in execute
system.switch_cpus_1.iew.iewExecutedInsts   2132256371                       # Number of executed instructions
system.switch_cpus_1.iew.iewIQFullEvents       720918                       # Number of times the IQ has become full, causing a stall
system.switch_cpus_1.iew.iewIdleCycles              0                       # Number of cycles IEW is idle
system.switch_cpus_1.iew.iewLSQFullEvents     17232789                       # Number of times the LSQ has become full, causing a stall
system.switch_cpus_1.iew.iewSquashCycles     11344902                       # Number of cycles IEW is squashing
system.switch_cpus_1.iew.iewUnblockCycles     18216458                       # Number of cycles IEW is unblocking
system.switch_cpus_1.iew.lsq.thread0.blockedLoads            0                       # Number of blocked loads due to partial load-store forwarding
system.switch_cpus_1.iew.lsq.thread0.cacheBlocked       182203                       # Number of times an access to memory failed due to the cache being blocked
system.switch_cpus_1.iew.lsq.thread0.forwLoads     28130886                       # Number of loads that had data forwarded from stores
system.switch_cpus_1.iew.lsq.thread0.ignoredResponses       159320                       # Number of memory responses ignored because the instruction is squashed
system.switch_cpus_1.iew.lsq.thread0.invAddrLoads            0                       # Number of loads ignored due to an invalid address
system.switch_cpus_1.iew.lsq.thread0.invAddrSwpfs            0                       # Number of software prefetches ignored due to an invalid address
system.switch_cpus_1.iew.lsq.thread0.memOrderViolation        29445                       # Number of memory ordering violations
system.switch_cpus_1.iew.lsq.thread0.rescheduledLoads        81492                       # Number of loads that were rescheduled
system.switch_cpus_1.iew.lsq.thread0.squashedLoads     44672428                       # Number of loads squashed
system.switch_cpus_1.iew.lsq.thread0.squashedStores     19573018                       # Number of stores squashed
system.switch_cpus_1.iew.memOrderViolationEvents        29445                       # Number of memory order violations
system.switch_cpus_1.iew.predictedNotTakenIncorrect     12607251                       # Number of branches that were predicted not taken incorrectly
system.switch_cpus_1.iew.predictedTakenIncorrect      1619684                       # Number of branches that were predicted taken incorrectly
system.switch_cpus_1.iew.wb_consumers      2525318369                       # num instructions consuming a value
system.switch_cpus_1.iew.wb_count          2121625362                       # cumulative count of insts written-back
system.switch_cpus_1.iew.wb_fanout           0.619378                       # average fanout of values written-back
system.switch_cpus_1.iew.wb_producers      1564126312                       # num instructions producing a value
system.switch_cpus_1.iew.wb_rate             2.744254                       # insts written-back per cycle
system.switch_cpus_1.iew.wb_sent           2126453383                       # cumulative count of insts sent to commit
system.switch_cpus_1.int_regfile_reads     2643067712                       # number of integer regfile reads
system.switch_cpus_1.int_regfile_writes    1438354736                       # number of integer regfile writes
system.switch_cpus_1.ipc                     1.293468                       # IPC: Instructions Per Cycle
system.switch_cpus_1.ipc_total               1.293468                       # IPC: Total IPC of All Threads
system.switch_cpus_1.iq.FU_type_0::No_OpClass      9979537      0.46%      0.46% # Type of FU issued
system.switch_cpus_1.iq.FU_type_0::IntAlu   1523589633     70.50%     70.96% # Type of FU issued
system.switch_cpus_1.iq.FU_type_0::IntMult      1231936      0.06%     71.02% # Type of FU issued
system.switch_cpus_1.iq.FU_type_0::IntDiv      5963839      0.28%     71.30% # Type of FU issued
system.switch_cpus_1.iq.FU_type_0::FloatAdd     55224775      2.56%     73.85% # Type of FU issued
system.switch_cpus_1.iq.FU_type_0::FloatCmp            0      0.00%     73.85% # Type of FU issued
system.switch_cpus_1.iq.FU_type_0::FloatCvt          682      0.00%     73.85% # Type of FU issued
system.switch_cpus_1.iq.FU_type_0::FloatMult            0      0.00%     73.85% # Type of FU issued
system.switch_cpus_1.iq.FU_type_0::FloatMultAcc            0      0.00%     73.85% # Type of FU issued
system.switch_cpus_1.iq.FU_type_0::FloatDiv            0      0.00%     73.85% # Type of FU issued
system.switch_cpus_1.iq.FU_type_0::FloatMisc            0      0.00%     73.85% # Type of FU issued
system.switch_cpus_1.iq.FU_type_0::FloatSqrt            0      0.00%     73.85% # Type of FU issued
system.switch_cpus_1.iq.FU_type_0::SimdAdd            0      0.00%     73.85% # Type of FU issued
system.switch_cpus_1.iq.FU_type_0::SimdAddAcc            0      0.00%     73.85% # Type of FU issued
system.switch_cpus_1.iq.FU_type_0::SimdAlu     25050697      1.16%     75.01% # Type of FU issued
system.switch_cpus_1.iq.FU_type_0::SimdCmp       693400      0.03%     75.04% # Type of FU issued
system.switch_cpus_1.iq.FU_type_0::SimdCvt      5256794      0.24%     75.29% # Type of FU issued
system.switch_cpus_1.iq.FU_type_0::SimdMisc     14776028      0.68%     75.97% # Type of FU issued
system.switch_cpus_1.iq.FU_type_0::SimdMult            0      0.00%     75.97% # Type of FU issued
system.switch_cpus_1.iq.FU_type_0::SimdMultAcc            0      0.00%     75.97% # Type of FU issued
system.switch_cpus_1.iq.FU_type_0::SimdShift            0      0.00%     75.97% # Type of FU issued
system.switch_cpus_1.iq.FU_type_0::SimdShiftAcc            0      0.00%     75.97% # Type of FU issued
system.switch_cpus_1.iq.FU_type_0::SimdDiv            0      0.00%     75.97% # Type of FU issued
system.switch_cpus_1.iq.FU_type_0::SimdSqrt            0      0.00%     75.97% # Type of FU issued
system.switch_cpus_1.iq.FU_type_0::SimdFloatAdd     54269698      2.51%     78.48% # Type of FU issued
system.switch_cpus_1.iq.FU_type_0::SimdFloatAlu            0      0.00%     78.48% # Type of FU issued
system.switch_cpus_1.iq.FU_type_0::SimdFloatCmp            0      0.00%     78.48% # Type of FU issued
system.switch_cpus_1.iq.FU_type_0::SimdFloatCvt     49781677      2.30%     80.78% # Type of FU issued
system.switch_cpus_1.iq.FU_type_0::SimdFloatDiv      1924967      0.09%     80.87% # Type of FU issued
system.switch_cpus_1.iq.FU_type_0::SimdFloatMisc            0      0.00%     80.87% # Type of FU issued
system.switch_cpus_1.iq.FU_type_0::SimdFloatMult     23646344      1.09%     81.97% # Type of FU issued
system.switch_cpus_1.iq.FU_type_0::SimdFloatMultAcc            0      0.00%     81.97% # Type of FU issued
system.switch_cpus_1.iq.FU_type_0::SimdFloatSqrt            0      0.00%     81.97% # Type of FU issued
system.switch_cpus_1.iq.FU_type_0::SimdReduceAdd            0      0.00%     81.97% # Type of FU issued
system.switch_cpus_1.iq.FU_type_0::SimdReduceAlu            0      0.00%     81.97% # Type of FU issued
system.switch_cpus_1.iq.FU_type_0::SimdReduceCmp            0      0.00%     81.97% # Type of FU issued
system.switch_cpus_1.iq.FU_type_0::SimdFloatReduceAdd            0      0.00%     81.97% # Type of FU issued
system.switch_cpus_1.iq.FU_type_0::SimdFloatReduceCmp            0      0.00%     81.97% # Type of FU issued
system.switch_cpus_1.iq.FU_type_0::SimdAes            0      0.00%     81.97% # Type of FU issued
system.switch_cpus_1.iq.FU_type_0::SimdAesMix            0      0.00%     81.97% # Type of FU issued
system.switch_cpus_1.iq.FU_type_0::SimdSha1Hash            0      0.00%     81.97% # Type of FU issued
system.switch_cpus_1.iq.FU_type_0::SimdSha1Hash2            0      0.00%     81.97% # Type of FU issued
system.switch_cpus_1.iq.FU_type_0::SimdSha256Hash            0      0.00%     81.97% # Type of FU issued
system.switch_cpus_1.iq.FU_type_0::SimdSha256Hash2            0      0.00%     81.97% # Type of FU issued
system.switch_cpus_1.iq.FU_type_0::SimdShaSigma2            0      0.00%     81.97% # Type of FU issued
system.switch_cpus_1.iq.FU_type_0::SimdShaSigma3            0      0.00%     81.97% # Type of FU issued
system.switch_cpus_1.iq.FU_type_0::SimdPredAlu            0      0.00%     81.97% # Type of FU issued
system.switch_cpus_1.iq.FU_type_0::MemRead    195028064      9.02%     90.99% # Type of FU issued
system.switch_cpus_1.iq.FU_type_0::MemWrite    111518462      5.16%     96.15% # Type of FU issued
system.switch_cpus_1.iq.FU_type_0::FloatMemRead     70267374      3.25%     99.40% # Type of FU issued
system.switch_cpus_1.iq.FU_type_0::FloatMemWrite     12896899      0.60%    100.00% # Type of FU issued
system.switch_cpus_1.iq.FU_type_0::IprAccess            0      0.00%    100.00% # Type of FU issued
system.switch_cpus_1.iq.FU_type_0::InstPrefetch            0      0.00%    100.00% # Type of FU issued
system.switch_cpus_1.iq.FU_type_0::total   2161100806                       # Type of FU issued
system.switch_cpus_1.iq.fp_alu_accesses     394651555                       # Number of floating point alu accesses
system.switch_cpus_1.iq.fp_inst_queue_reads    787692706                       # Number of floating instruction queue reads
system.switch_cpus_1.iq.fp_inst_queue_wakeup_accesses    385414227                       # Number of floating instruction queue wakeup accesses
system.switch_cpus_1.iq.fp_inst_queue_writes    513465893                       # Number of floating instruction queue writes
system.switch_cpus_1.iq.fu_busy_cnt          25752749                       # FU busy when requested
system.switch_cpus_1.iq.fu_busy_rate         0.011916                       # FU busy rate (busy events/executed inst)
system.switch_cpus_1.iq.fu_full::No_OpClass            0      0.00%      0.00% # attempts to use FU when none available
system.switch_cpus_1.iq.fu_full::IntAlu      21870838     84.93%     84.93% # attempts to use FU when none available
system.switch_cpus_1.iq.fu_full::IntMult            0      0.00%     84.93% # attempts to use FU when none available
system.switch_cpus_1.iq.fu_full::IntDiv             0      0.00%     84.93% # attempts to use FU when none available
system.switch_cpus_1.iq.fu_full::FloatAdd            0      0.00%     84.93% # attempts to use FU when none available
system.switch_cpus_1.iq.fu_full::FloatCmp            0      0.00%     84.93% # attempts to use FU when none available
system.switch_cpus_1.iq.fu_full::FloatCvt            1      0.00%     84.93% # attempts to use FU when none available
system.switch_cpus_1.iq.fu_full::FloatMult            0      0.00%     84.93% # attempts to use FU when none available
system.switch_cpus_1.iq.fu_full::FloatMultAcc            0      0.00%     84.93% # attempts to use FU when none available
system.switch_cpus_1.iq.fu_full::FloatDiv            0      0.00%     84.93% # attempts to use FU when none available
system.switch_cpus_1.iq.fu_full::FloatMisc            0      0.00%     84.93% # attempts to use FU when none available
system.switch_cpus_1.iq.fu_full::FloatSqrt            0      0.00%     84.93% # attempts to use FU when none available
system.switch_cpus_1.iq.fu_full::SimdAdd            0      0.00%     84.93% # attempts to use FU when none available
system.switch_cpus_1.iq.fu_full::SimdAddAcc            0      0.00%     84.93% # attempts to use FU when none available
system.switch_cpus_1.iq.fu_full::SimdAlu         9861      0.04%     84.96% # attempts to use FU when none available
system.switch_cpus_1.iq.fu_full::SimdCmp          946      0.00%     84.97% # attempts to use FU when none available
system.switch_cpus_1.iq.fu_full::SimdCvt       165737      0.64%     85.61% # attempts to use FU when none available
system.switch_cpus_1.iq.fu_full::SimdMisc       130944      0.51%     86.12% # attempts to use FU when none available
system.switch_cpus_1.iq.fu_full::SimdMult            0      0.00%     86.12% # attempts to use FU when none available
system.switch_cpus_1.iq.fu_full::SimdMultAcc            0      0.00%     86.12% # attempts to use FU when none available
system.switch_cpus_1.iq.fu_full::SimdShift            0      0.00%     86.12% # attempts to use FU when none available
system.switch_cpus_1.iq.fu_full::SimdShiftAcc            0      0.00%     86.12% # attempts to use FU when none available
system.switch_cpus_1.iq.fu_full::SimdDiv            0      0.00%     86.12% # attempts to use FU when none available
system.switch_cpus_1.iq.fu_full::SimdSqrt            0      0.00%     86.12% # attempts to use FU when none available
system.switch_cpus_1.iq.fu_full::SimdFloatAdd       342861      1.33%     87.45% # attempts to use FU when none available
system.switch_cpus_1.iq.fu_full::SimdFloatAlu            0      0.00%     87.45% # attempts to use FU when none available
system.switch_cpus_1.iq.fu_full::SimdFloatCmp            0      0.00%     87.45% # attempts to use FU when none available
system.switch_cpus_1.iq.fu_full::SimdFloatCvt      1001543      3.89%     91.34% # attempts to use FU when none available
system.switch_cpus_1.iq.fu_full::SimdFloatDiv            0      0.00%     91.34% # attempts to use FU when none available
system.switch_cpus_1.iq.fu_full::SimdFloatMisc            0      0.00%     91.34% # attempts to use FU when none available
system.switch_cpus_1.iq.fu_full::SimdFloatMult        15426      0.06%     91.40% # attempts to use FU when none available
system.switch_cpus_1.iq.fu_full::SimdFloatMultAcc            0      0.00%     91.40% # attempts to use FU when none available
system.switch_cpus_1.iq.fu_full::SimdFloatSqrt            0      0.00%     91.40% # attempts to use FU when none available
system.switch_cpus_1.iq.fu_full::SimdReduceAdd            0      0.00%     91.40% # attempts to use FU when none available
system.switch_cpus_1.iq.fu_full::SimdReduceAlu            0      0.00%     91.40% # attempts to use FU when none available
system.switch_cpus_1.iq.fu_full::SimdReduceCmp            0      0.00%     91.40% # attempts to use FU when none available
system.switch_cpus_1.iq.fu_full::SimdFloatReduceAdd            0      0.00%     91.40% # attempts to use FU when none available
system.switch_cpus_1.iq.fu_full::SimdFloatReduceCmp            0      0.00%     91.40% # attempts to use FU when none available
system.switch_cpus_1.iq.fu_full::SimdAes            0      0.00%     91.40% # attempts to use FU when none available
system.switch_cpus_1.iq.fu_full::SimdAesMix            0      0.00%     91.40% # attempts to use FU when none available
system.switch_cpus_1.iq.fu_full::SimdSha1Hash            0      0.00%     91.40% # attempts to use FU when none available
system.switch_cpus_1.iq.fu_full::SimdSha1Hash2            0      0.00%     91.40% # attempts to use FU when none available
system.switch_cpus_1.iq.fu_full::SimdSha256Hash            0      0.00%     91.40% # attempts to use FU when none available
system.switch_cpus_1.iq.fu_full::SimdSha256Hash2            0      0.00%     91.40% # attempts to use FU when none available
system.switch_cpus_1.iq.fu_full::SimdShaSigma2            0      0.00%     91.40% # attempts to use FU when none available
system.switch_cpus_1.iq.fu_full::SimdShaSigma3            0      0.00%     91.40% # attempts to use FU when none available
system.switch_cpus_1.iq.fu_full::SimdPredAlu            0      0.00%     91.40% # attempts to use FU when none available
system.switch_cpus_1.iq.fu_full::MemRead      1408968      5.47%     96.87% # attempts to use FU when none available
system.switch_cpus_1.iq.fu_full::MemWrite       213577      0.83%     97.70% # attempts to use FU when none available
system.switch_cpus_1.iq.fu_full::FloatMemRead       207979      0.81%     98.51% # attempts to use FU when none available
system.switch_cpus_1.iq.fu_full::FloatMemWrite       384068      1.49%    100.00% # attempts to use FU when none available
system.switch_cpus_1.iq.fu_full::IprAccess            0      0.00%    100.00% # attempts to use FU when none available
system.switch_cpus_1.iq.fu_full::InstPrefetch            0      0.00%    100.00% # attempts to use FU when none available
system.switch_cpus_1.iq.int_alu_accesses   1782222463                       # Number of integer alu accesses
system.switch_cpus_1.iq.int_inst_queue_reads   4336641873                       # Number of integer instruction queue reads
system.switch_cpus_1.iq.int_inst_queue_wakeup_accesses   1736211135                       # Number of integer instruction queue wakeup accesses
system.switch_cpus_1.iq.int_inst_queue_writes   2174587060                       # Number of integer instruction queue writes
system.switch_cpus_1.iq.iqInstsAdded       2300357172                       # Number of instructions added to the IQ (excludes non-spec)
system.switch_cpus_1.iq.iqInstsIssued      2161100806                       # Number of instructions issued
system.switch_cpus_1.iq.iqNonSpecInstsAdded       252781                       # Number of non-speculative instructions added to the IQ
system.switch_cpus_1.iq.iqSquashedInstsExamined    387432422                       # Number of squashed instructions iterated over during squash; mainly for profiling
system.switch_cpus_1.iq.iqSquashedInstsIssued      3742181                       # Number of squashed instructions issued
system.switch_cpus_1.iq.iqSquashedNonSpecRemoved       252003                       # Number of squashed non-spec instructions that were removed
system.switch_cpus_1.iq.iqSquashedOperandsExamined    538448133                       # Number of squashed operands that are examined and possibly removed from graph
system.switch_cpus_1.iq.issued_per_cycle::samples    772638039                       # Number of insts issued each cycle
system.switch_cpus_1.iq.issued_per_cycle::mean     2.797042                       # Number of insts issued each cycle
system.switch_cpus_1.iq.issued_per_cycle::stdev     2.494900                       # Number of insts issued each cycle
system.switch_cpus_1.iq.issued_per_cycle::underflows            0      0.00%      0.00% # Number of insts issued each cycle
system.switch_cpus_1.iq.issued_per_cycle::0    234342873     30.33%     30.33% # Number of insts issued each cycle
system.switch_cpus_1.iq.issued_per_cycle::1     63339031      8.20%     38.53% # Number of insts issued each cycle
system.switch_cpus_1.iq.issued_per_cycle::2     85030432     11.01%     49.53% # Number of insts issued each cycle
system.switch_cpus_1.iq.issued_per_cycle::3     87503007     11.33%     60.86% # Number of insts issued each cycle
system.switch_cpus_1.iq.issued_per_cycle::4     85349678     11.05%     71.90% # Number of insts issued each cycle
system.switch_cpus_1.iq.issued_per_cycle::5     75660969      9.79%     81.70% # Number of insts issued each cycle
system.switch_cpus_1.iq.issued_per_cycle::6     71318318      9.23%     90.93% # Number of insts issued each cycle
system.switch_cpus_1.iq.issued_per_cycle::7     43171423      5.59%     96.52% # Number of insts issued each cycle
system.switch_cpus_1.iq.issued_per_cycle::8     26922308      3.48%    100.00% # Number of insts issued each cycle
system.switch_cpus_1.iq.issued_per_cycle::overflows            0      0.00%    100.00% # Number of insts issued each cycle
system.switch_cpus_1.iq.issued_per_cycle::min_value            0                       # Number of insts issued each cycle
system.switch_cpus_1.iq.issued_per_cycle::max_value            8                       # Number of insts issued each cycle
system.switch_cpus_1.iq.issued_per_cycle::total    772638039                       # Number of insts issued each cycle
system.switch_cpus_1.iq.rate                 2.795314                       # Inst issue rate
system.switch_cpus_1.iq.vec_alu_accesses            0                       # Number of vector alu accesses
system.switch_cpus_1.iq.vec_inst_queue_reads            0                       # Number of vector instruction queue reads
system.switch_cpus_1.iq.vec_inst_queue_wakeup_accesses            0                       # Number of vector instruction queue wakeup accesses
system.switch_cpus_1.iq.vec_inst_queue_writes            0                       # Number of vector instruction queue writes
system.switch_cpus_1.itb.rdAccesses                 0                       # TLB accesses on read requests
system.switch_cpus_1.itb.rdMisses                   0                       # TLB misses on read requests
system.switch_cpus_1.itb.wrAccesses         192686716                       # TLB accesses on write requests
system.switch_cpus_1.itb.wrMisses                2677                       # TLB misses on write requests
system.switch_cpus_1.memDep0.conflictingLoads     18438795                       # Number of conflicting loads.
system.switch_cpus_1.memDep0.conflictingStores      4773072                       # Number of conflicting stores.
system.switch_cpus_1.memDep0.insertedLoads    279119174                       # Number of loads inserted to the mem dependence unit.
system.switch_cpus_1.memDep0.insertedStores    132446512                       # Number of stores inserted to the mem dependence unit.
system.switch_cpus_1.misc_regfile_reads     849870087                       # number of misc regfile reads
system.switch_cpus_1.misc_regfile_writes           63                       # number of misc regfile writes
system.switch_cpus_1.numCycles              773115587                       # number of cpu cycles simulated
system.switch_cpus_1.numWorkItemsCompleted            0                       # number of work items this cpu completed
system.switch_cpus_1.numWorkItemsStarted            0                       # number of work items this cpu started
system.switch_cpus_1.rename.BlockCycles     136655469                       # Number of cycles rename is blocking
system.switch_cpus_1.rename.CommittedMaps   2145497260                       # Number of HB maps that are committed
system.switch_cpus_1.rename.IQFullEvents      8400542                       # Number of times rename has blocked due to IQ full
system.switch_cpus_1.rename.IdleCycles      199366270                       # Number of cycles rename is idle
system.switch_cpus_1.rename.LQFullEvents     11560287                       # Number of times rename has blocked due to LQ full
system.switch_cpus_1.rename.ROBFullEvents      2419024                       # Number of times rename has blocked due to ROB full
system.switch_cpus_1.rename.RenameLookups   5895222047                       # Number of register rename lookups that rename has made
system.switch_cpus_1.rename.RenamedInsts   2410337070                       # Number of instructions processed by rename
system.switch_cpus_1.rename.RenamedOperands   2693124209                       # Number of destination operands rename has renamed
system.switch_cpus_1.rename.RunCycles       372842296                       # Number of cycles rename is running
system.switch_cpus_1.rename.SQFullEvents     27335214                       # Number of times rename has blocked due to SQ full
system.switch_cpus_1.rename.SquashCycles     11344902                       # Number of cycles rename is squashing
system.switch_cpus_1.rename.UnblockCycles     52321164                       # Number of cycles rename is unblocking
system.switch_cpus_1.rename.UndoneMaps      547626895                       # Number of HB maps that are undone due to squashing
system.switch_cpus_1.rename.fp_rename_lookups    693948139                       # Number of floating rename lookups
system.switch_cpus_1.rename.int_rename_lookups   3053368486                       # Number of integer rename lookups
system.switch_cpus_1.rename.serializeStallCycles       107936                       # count of cycles rename stalled for serializing inst
system.switch_cpus_1.rename.serializingInsts        31301                       # count of serializing insts renamed
system.switch_cpus_1.rename.skidInsts        50227754                       # count of insts added to the skid buffer
system.switch_cpus_1.rename.tempSerializingInsts        32284                       # count of temporary serializing insts renamed
system.switch_cpus_1.rob.rob_reads         2891035955                       # The number of ROB reads
system.switch_cpus_1.rob.rob_writes        4656956675                       # The number of ROB writes
system.switch_cpus_1.timesIdled                 69808                       # Number of times that the entire CPU went into an idle state and unscheduled itself
system.tol2bus.snoop_filter.hit_multi_requests          204                       # Number of requests hitting in the snoop filter with multiple (>1) holders of the requested data.
system.tol2bus.snoop_filter.hit_multi_snoops            0                       # Number of snoops hitting in the snoop filter with multiple (>1) holders of the requested data.
system.tol2bus.snoop_filter.hit_single_requests      1918488                       # Number of requests hitting in the snoop filter with a single holder of the requested data.
system.tol2bus.snoop_filter.hit_single_snoops         5013                       # Number of snoops hitting in the snoop filter with a single holder of the requested data.
system.tol2bus.snoop_filter.tot_requests      3648017                       # Total number of requests made to the snoop filter.
system.tol2bus.snoop_filter.tot_snoops           5013                       # Total number of snoops made to the snoop filter.
system.tol3bus.snoop_filter.hit_multi_requests            0                       # Number of requests hitting in the snoop filter with multiple (>1) holders of the requested data.
system.tol3bus.snoop_filter.hit_multi_snoops            0                       # Number of snoops hitting in the snoop filter with multiple (>1) holders of the requested data.
system.tol3bus.snoop_filter.hit_single_requests      1377193                       # Number of requests hitting in the snoop filter with a single holder of the requested data.
system.tol3bus.snoop_filter.hit_single_snoops        48354                       # Number of snoops hitting in the snoop filter with a single holder of the requested data.
system.tol3bus.snoop_filter.tot_requests      2587298                       # Total number of requests made to the snoop filter.
system.tol3bus.snoop_filter.tot_snoops          48354                       # Total number of snoops made to the snoop filter.
system.membus.trans_dist::ReadResp             900563                       # Transaction distribution
system.membus.trans_dist::WritebackDirty       303907                       # Transaction distribution
system.membus.trans_dist::CleanEvict           747250                       # Transaction distribution
system.membus.trans_dist::UpgradeReq               64                       # Transaction distribution
system.membus.trans_dist::ReadExReq            150578                       # Transaction distribution
system.membus.trans_dist::ReadExResp           150578                       # Transaction distribution
system.membus.trans_dist::ReadSharedReq        900563                       # Transaction distribution
system.membus.pkt_count_system.l3.mem_side::system.mem_ctrls.port      3153503                       # Packet count per connected master and slave (bytes)
system.membus.pkt_count_system.l3.mem_side::total      3153503                       # Packet count per connected master and slave (bytes)
system.membus.pkt_count::total                3153503                       # Packet count per connected master and slave (bytes)
system.membus.pkt_size_system.l3.mem_side::system.mem_ctrls.port     86723072                       # Cumulative packet size per connected master and slave (bytes)
system.membus.pkt_size_system.l3.mem_side::total     86723072                       # Cumulative packet size per connected master and slave (bytes)
system.membus.pkt_size::total                86723072                       # Cumulative packet size per connected master and slave (bytes)
system.membus.snoops                                0                       # Total snoops (count)
system.membus.snoopTraffic                          0                       # Total snoop traffic (bytes)
system.membus.snoop_fanout::samples           1051205                       # Request fanout histogram
system.membus.snoop_fanout::mean                    0                       # Request fanout histogram
system.membus.snoop_fanout::stdev                   0                       # Request fanout histogram
system.membus.snoop_fanout::underflows              0      0.00%      0.00% # Request fanout histogram
system.membus.snoop_fanout::0                 1051205    100.00%    100.00% # Request fanout histogram
system.membus.snoop_fanout::1                       0      0.00%    100.00% # Request fanout histogram
system.membus.snoop_fanout::overflows               0      0.00%    100.00% # Request fanout histogram
system.membus.snoop_fanout::min_value               0                       # Request fanout histogram
system.membus.snoop_fanout::max_value               0                       # Request fanout histogram
system.membus.snoop_fanout::total             1051205                       # Request fanout histogram
system.membus.reqLayer2.occupancy          3577405000                       # Layer occupancy (ticks)
system.membus.reqLayer2.utilization               0.9                       # Layer utilization (%)
system.membus.respLayer1.occupancy         5559471500                       # Layer occupancy (ticks)
system.membus.respLayer1.utilization              1.4                       # Layer utilization (%)
system.membus.power_state.pwrStateResidencyTicks::UNDEFINED 1646035845500                       # Cumulative time (in ticks) in various power states
system.switch_cpus_1.dtb.walker.power_state.pwrStateResidencyTicks::UNDEFINED 1646035845500                       # Cumulative time (in ticks) in various power states
system.switch_cpus_1.itb.walker.power_state.pwrStateResidencyTicks::UNDEFINED 1646035845500                       # Cumulative time (in ticks) in various power states
system.switch_cpus_1.power_state.pwrStateResidencyTicks::OFF 1646035845500                       # Cumulative time (in ticks) in various power states
system.switch_cpus.dtb.walker.power_state.pwrStateResidencyTicks::UNDEFINED 1646035845500                       # Cumulative time (in ticks) in various power states
system.switch_cpus.itb.walker.power_state.pwrStateResidencyTicks::UNDEFINED 1646035845500                       # Cumulative time (in ticks) in various power states
system.switch_cpus.power_state.numTransitions            1                       # Number of power state transitions
system.switch_cpus.power_state.pwrStateResidencyTicks::OFF 1646035845500                       # Cumulative time (in ticks) in various power states
system.tol2bus.trans_dist::ReadResp           1518357                       # Transaction distribution
system.tol2bus.trans_dist::WritebackDirty       731087                       # Transaction distribution
system.tol2bus.trans_dist::WritebackClean       407809                       # Transaction distribution
system.tol2bus.trans_dist::CleanEvict          972552                       # Transaction distribution
system.tol2bus.trans_dist::UpgradeReq          189108                       # Transaction distribution
system.tol2bus.trans_dist::UpgradeResp         189108                       # Transaction distribution
system.tol2bus.trans_dist::ReadExReq           211100                       # Transaction distribution
system.tol2bus.trans_dist::ReadExResp          211100                       # Transaction distribution
system.tol2bus.trans_dist::ReadCleanReq       1518357                       # Transaction distribution
system.tol2bus.pkt_count_system.cpu.icache.mem_side::system.l2.cpu_side      1223434                       # Packet count per connected master and slave (bytes)
system.tol2bus.pkt_count_system.cpu.dcache.mem_side::system.l2.cpu_side      4343145                       # Packet count per connected master and slave (bytes)
system.tol2bus.pkt_count::total               5566579                       # Packet count per connected master and slave (bytes)
system.tol2bus.pkt_size_system.cpu.icache.mem_side::system.l2.cpu_side     52199680                       # Cumulative packet size per connected master and slave (bytes)
system.tol2bus.pkt_size_system.cpu.dcache.mem_side::system.l2.cpu_side    110196608                       # Cumulative packet size per connected master and slave (bytes)
system.tol2bus.pkt_size::total              162396288                       # Cumulative packet size per connected master and slave (bytes)
system.tol2bus.snoops                          381999                       # Total snoops (count)
system.tol2bus.snoopTraffic                  21178304                       # Total snoop traffic (bytes)
system.tol2bus.snoop_fanout::samples          2300561                       # Request fanout histogram
system.tol2bus.snoop_fanout::mean            0.002268                       # Request fanout histogram
system.tol2bus.snoop_fanout::stdev           0.047566                       # Request fanout histogram
system.tol2bus.snoop_fanout::underflows             0      0.00%      0.00% # Request fanout histogram
system.tol2bus.snoop_fanout::0                2295344     99.77%     99.77% # Request fanout histogram
system.tol2bus.snoop_fanout::1                   5217      0.23%    100.00% # Request fanout histogram
system.tol2bus.snoop_fanout::2                      0      0.00%    100.00% # Request fanout histogram
system.tol2bus.snoop_fanout::3                      0      0.00%    100.00% # Request fanout histogram
system.tol2bus.snoop_fanout::4                      0      0.00%    100.00% # Request fanout histogram
system.tol2bus.snoop_fanout::overflows              0      0.00%    100.00% # Request fanout histogram
system.tol2bus.snoop_fanout::min_value              0                       # Request fanout histogram
system.tol2bus.snoop_fanout::max_value              1                       # Request fanout histogram
system.tol2bus.snoop_fanout::total            2300561                       # Request fanout histogram
system.tol2bus.reqLayer0.occupancy         2631996500                       # Layer occupancy (ticks)
system.tol2bus.reqLayer0.utilization              0.7                       # Layer utilization (%)
system.tol2bus.respLayer1.occupancy        2077218599                       # Layer occupancy (ticks)
system.tol2bus.respLayer1.utilization             0.5                       # Layer utilization (%)
system.tol2bus.respLayer0.occupancy         611721000                       # Layer occupancy (ticks)
system.tol2bus.respLayer0.utilization             0.2                       # Layer utilization (%)
system.tol2bus.power_state.pwrStateResidencyTicks::UNDEFINED 1646035845500                       # Cumulative time (in ticks) in various power states
system.voltage_domain.voltage                       1                       # Voltage in Volts
system.clk_domain.clock                          1000                       # Clock period in ticks
system.l2.demand_hits::.switch_cpus_1.inst       404865                       # number of demand (read+write) hits
system.l2.demand_hits::.switch_cpus_1.data       114435                       # number of demand (read+write) hits
system.l2.demand_hits::total                   519300                       # number of demand (read+write) hits
system.l2.overall_hits::.switch_cpus_1.inst       404865                       # number of overall hits
system.l2.overall_hits::.switch_cpus_1.data       114435                       # number of overall hits
system.l2.overall_hits::total                  519300                       # number of overall hits
system.l2.demand_misses::.switch_cpus_1.inst         2946                       # number of demand (read+write) misses
system.l2.demand_misses::.switch_cpus_1.data      1207208                       # number of demand (read+write) misses
system.l2.demand_misses::total                1210154                       # number of demand (read+write) misses
system.l2.overall_misses::.switch_cpus_1.inst         2946                       # number of overall misses
system.l2.overall_misses::.switch_cpus_1.data      1207208                       # number of overall misses
system.l2.overall_misses::total               1210154                       # number of overall misses
system.l2.demand_miss_latency::.switch_cpus_1.inst    275433000                       # number of demand (read+write) miss cycles
system.l2.demand_miss_latency::.switch_cpus_1.data 104277535000                       # number of demand (read+write) miss cycles
system.l2.demand_miss_latency::total     104552968000                       # number of demand (read+write) miss cycles
system.l2.overall_miss_latency::.switch_cpus_1.inst    275433000                       # number of overall miss cycles
system.l2.overall_miss_latency::.switch_cpus_1.data 104277535000                       # number of overall miss cycles
system.l2.overall_miss_latency::total    104552968000                       # number of overall miss cycles
system.l2.demand_accesses::.switch_cpus_1.inst       407811                       # number of demand (read+write) accesses
system.l2.demand_accesses::.switch_cpus_1.data      1321643                       # number of demand (read+write) accesses
system.l2.demand_accesses::total              1729454                       # number of demand (read+write) accesses
system.l2.overall_accesses::.switch_cpus_1.inst       407811                       # number of overall (read+write) accesses
system.l2.overall_accesses::.switch_cpus_1.data      1321643                       # number of overall (read+write) accesses
system.l2.overall_accesses::total             1729454                       # number of overall (read+write) accesses
[...]
system.cpu.dcache.demand_miss_latency::total 479951035566                       # number of demand (read+write) miss cycles
system.cpu.dcache.overall_miss_latency::.switch_cpus.data    829614000                       # number of overall miss cycles
system.cpu.dcache.overall_miss_latency::.switch_cpus_1.data 479121421566                       # number of overall miss cycles
system.cpu.dcache.overall_miss_latency::total 479951035566                       # number of overall miss cycles
system.cpu.dcache.demand_accesses::.cpu.data    398468329                       # number of demand (read+write) accesses
system.cpu.dcache.demand_accesses::.switch_cpus.data     19936533                       # number of demand (read+write) accesses
system.cpu.dcache.demand_accesses::.switch_cpus_1.data    343906214                       # number of demand (read+write) accesses
system.cpu.dcache.demand_accesses::total    762311076                       # number of demand (read+write) accesses
system.cpu.dcache.overall_accesses::.cpu.data    398468329                       # number of overall (read+write) accesses
system.cpu.dcache.overall_accesses::.switch_cpus.data     19936533                       # number of overall (read+write) accesses
system.cpu.dcache.overall_accesses::.switch_cpus_1.data    343906214                       # number of overall (read+write) accesses
system.cpu.dcache.overall_accesses::total    762311076                       # number of overall (read+write) accesses
system.cpu.dcache.demand_miss_rate::.cpu.data     0.001211                       # miss rate for demand accesses
system.cpu.dcache.demand_miss_rate::.switch_cpus.data     0.000969                       # miss rate for demand accesses
system.cpu.dcache.demand_miss_rate::.switch_cpus_1.data     0.019901                       # miss rate for demand accesses
system.cpu.dcache.demand_miss_rate::total     0.009636                       # miss rate for demand accesses
system.cpu.dcache.overall_miss_rate::.cpu.data     0.001211                       # miss rate for overall accesses
system.cpu.dcache.overall_miss_rate::.switch_cpus.data     0.000969                       # miss rate for overall accesses
system.cpu.dcache.overall_miss_rate::.switch_cpus_1.data     0.019901                       # miss rate for overall accesses
system.cpu.dcache.overall_miss_rate::total     0.009636                       # miss rate for overall accesses
system.cpu.dcache.demand_avg_miss_latency::.switch_cpus.data 42927.351754                       # average overall miss latency
system.cpu.dcache.demand_avg_miss_latency::.switch_cpus_1.data 70006.625064                       # average overall miss latency
system.cpu.dcache.demand_avg_miss_latency::total 65335.630782                       # average overall miss latency
system.cpu.dcache.overall_avg_miss_latency::.switch_cpus.data 42927.351754                       # average overall miss latency
system.cpu.dcache.overall_avg_miss_latency::.switch_cpus_1.data 70006.625064                       # average overall miss latency
system.cpu.dcache.overall_avg_miss_latency::total 65335.630782                       # average overall miss latency
system.cpu.dcache.blocked_cycles::no_mshrs      8497490                       # number of cycles access was blocked
system.cpu.dcache.blocked_cycles::no_targets         7147                       # number of cycles access was blocked
system.cpu.dcache.blocked::no_mshrs            207533                       # number of cycles access was blocked
system.cpu.dcache.blocked::no_targets              74                       # number of cycles access was blocked
system.cpu.dcache.avg_blocked_cycles::no_mshrs    40.945247                       # average number of cycles each access was blocked
system.cpu.dcache.avg_blocked_cycles::no_targets    96.581081                       # average number of cycles each access was blocked
system.cpu.dcache.writebacks::.writebacks       623340                       # number of writebacks
system.cpu.dcache.writebacks::total            623340                       # number of writebacks
system.cpu.dcache.demand_mshr_hits::.switch_cpus_1.data      5334897                       # number of demand (read+write) MSHR hits
system.cpu.dcache.demand_mshr_hits::total      5334897                       # number of demand (read+write) MSHR hits
system.cpu.dcache.overall_mshr_hits::.switch_cpus_1.data      5334897                       # number of overall MSHR hits
system.cpu.dcache.overall_mshr_hits::total      5334897                       # number of overall MSHR hits
system.cpu.dcache.demand_mshr_misses::.switch_cpus.data        19326                       # number of demand (read+write) MSHR misses
system.cpu.dcache.demand_mshr_misses::.switch_cpus_1.data      1509047                       # number of demand (read+write) MSHR misses
system.cpu.dcache.demand_mshr_misses::total      1528373                       # number of demand (read+write) MSHR misses
system.cpu.dcache.overall_mshr_misses::.switch_cpus.data        19326                       # number of overall MSHR misses
system.cpu.dcache.overall_mshr_misses::.switch_cpus_1.data      1509047                       # number of overall MSHR misses
system.cpu.dcache.overall_mshr_misses::total      1528373                       # number of overall MSHR misses
system.cpu.dcache.demand_mshr_miss_latency::.switch_cpus.data    810288000                       # number of demand (read+write) MSHR miss cycles
system.cpu.dcache.demand_mshr_miss_latency::.switch_cpus_1.data 112389310066                       # number of demand (read+write) MSHR miss cycles
system.cpu.dcache.demand_mshr_miss_latency::total 113199598066                       # number of demand (read+write) MSHR miss cycles
system.cpu.dcache.overall_mshr_miss_latency::.switch_cpus.data    810288000                       # number of overall MSHR miss cycles
system.cpu.dcache.overall_mshr_miss_latency::.switch_cpus_1.data 112389310066                       # number of overall MSHR miss cycles
system.cpu.dcache.overall_mshr_miss_latency::total 113199598066                       # number of overall MSHR miss cycles
system.cpu.dcache.demand_mshr_miss_rate::.switch_cpus.data     0.000969                       # mshr miss rate for demand accesses
system.cpu.dcache.demand_mshr_miss_rate::.switch_cpus_1.data     0.004388                       # mshr miss rate for demand accesses
system.cpu.dcache.demand_mshr_miss_rate::total     0.002005                       # mshr miss rate for demand accesses
system.cpu.dcache.overall_mshr_miss_rate::.switch_cpus.data     0.000969                       # mshr miss rate for overall accesses
system.cpu.dcache.overall_mshr_miss_rate::.switch_cpus_1.data     0.004388                       # mshr miss rate for overall accesses
system.cpu.dcache.overall_mshr_miss_rate::total     0.002005                       # mshr miss rate for overall accesses
system.cpu.dcache.demand_avg_mshr_miss_latency::.switch_cpus.data 41927.351754                       # average overall mshr miss latency
system.cpu.dcache.demand_avg_mshr_miss_latency::.switch_cpus_1.data 74477.011031                       # average overall mshr miss latency
system.cpu.dcache.demand_avg_mshr_miss_latency::total 74065.426480                       # average overall mshr miss latency
system.cpu.dcache.overall_avg_mshr_miss_latency::.switch_cpus.data 41927.351754                       # average overall mshr miss latency
system.cpu.dcache.overall_avg_mshr_miss_latency::.switch_cpus_1.data 74477.011031                       # average overall mshr miss latency
system.cpu.dcache.overall_avg_mshr_miss_latency::total 74065.426480                       # average overall mshr miss latency
system.cpu.dcache.replacements                1791915                       # number of replacements
system.cpu.dcache.ReadReq_hits::.cpu.data    222401914                       # number of ReadReq hits
system.cpu.dcache.ReadReq_hits::.switch_cpus.data     11108457                       # number of ReadReq hits
system.cpu.dcache.ReadReq_hits::.switch_cpus_1.data    224540081                       # number of ReadReq hits
system.cpu.dcache.ReadReq_hits::total       458050452                       # number of ReadReq hits
system.cpu.dcache.ReadReq_misses::.cpu.data       267234                       # number of ReadReq misses
system.cpu.dcache.ReadReq_misses::.switch_cpus.data        11302                       # number of ReadReq misses
system.cpu.dcache.ReadReq_misses::.switch_cpus_1.data      6443736                       # number of ReadReq misses
system.cpu.dcache.ReadReq_misses::total       6722272                       # number of ReadReq misses
system.cpu.dcache.ReadReq_miss_latency::.switch_cpus.data    310460000                       # number of ReadReq miss cycles
system.cpu.dcache.ReadReq_miss_latency::.switch_cpus_1.data 458094450500                       # number of ReadReq miss cycles
system.cpu.dcache.ReadReq_miss_latency::total 458404910500                       # number of ReadReq miss cycles
system.cpu.dcache.ReadReq_accesses::.cpu.data    222669148                       # number of ReadReq accesses(hits+misses)
system.cpu.dcache.ReadReq_accesses::.switch_cpus.data     11119759                       # number of ReadReq accesses(hits+misses)
system.cpu.dcache.ReadReq_accesses::.switch_cpus_1.data    230983817                       # number of ReadReq accesses(hits+misses)
system.cpu.dcache.ReadReq_accesses::total    464772724                       # number of ReadReq accesses(hits+misses)
system.cpu.dcache.ReadReq_miss_rate::.cpu.data     0.001200                       # miss rate for ReadReq accesses
system.cpu.dcache.ReadReq_miss_rate::.switch_cpus.data     0.001016                       # miss rate for ReadReq accesses
system.cpu.dcache.ReadReq_miss_rate::.switch_cpus_1.data     0.027897                       # miss rate for ReadReq accesses
system.cpu.dcache.ReadReq_miss_rate::total     0.014464                       # miss rate for ReadReq accesses
system.cpu.dcache.ReadReq_avg_miss_latency::.switch_cpus.data 27469.474429                       # average ReadReq miss latency
system.cpu.dcache.ReadReq_avg_miss_latency::.switch_cpus_1.data 71091.436784                       # average ReadReq miss latency
system.cpu.dcache.ReadReq_avg_miss_latency::total 68191.961066                       # average ReadReq miss latency
system.cpu.dcache.ReadReq_mshr_hits::.switch_cpus_1.data      5333192                       # number of ReadReq MSHR hits
system.cpu.dcache.ReadReq_mshr_hits::total      5333192                       # number of ReadReq MSHR hits
system.cpu.dcache.ReadReq_mshr_misses::.switch_cpus.data        11302                       # number of ReadReq MSHR misses
system.cpu.dcache.ReadReq_mshr_misses::.switch_cpus_1.data      1110544                       # number of ReadReq MSHR misses
system.cpu.dcache.ReadReq_mshr_misses::total      1121846                       # number of ReadReq MSHR misses
system.cpu.dcache.ReadReq_mshr_miss_latency::.switch_cpus.data    299158000                       # number of ReadReq MSHR miss cycles
system.cpu.dcache.ReadReq_mshr_miss_latency::.switch_cpus_1.data  91762635000                       # number of ReadReq MSHR miss cycles
system.cpu.dcache.ReadReq_mshr_miss_latency::total  92061793000                       # number of ReadReq MSHR miss cycles
system.cpu.dcache.ReadReq_mshr_miss_rate::.switch_cpus.data     0.001016                       # mshr miss rate for ReadReq accesses
system.cpu.dcache.ReadReq_mshr_miss_rate::.switch_cpus_1.data     0.004808                       # mshr miss rate for ReadReq accesses
system.cpu.dcache.ReadReq_mshr_miss_rate::total     0.002414                       # mshr miss rate for ReadReq accesses
system.cpu.dcache.ReadReq_avg_mshr_miss_latency::.switch_cpus.data 26469.474429                       # average ReadReq mshr miss latency
system.cpu.dcache.ReadReq_avg_mshr_miss_latency::.switch_cpus_1.data 82628.545109                       # average ReadReq mshr miss latency
system.cpu.dcache.ReadReq_avg_mshr_miss_latency::total 82062.772430                       # average ReadReq mshr miss latency
system.cpu.dcache.WriteReq_hits::.cpu.data    175583754                       # number of WriteReq hits
system.cpu.dcache.WriteReq_hits::.switch_cpus.data      8808750                       # number of WriteReq hits
system.cpu.dcache.WriteReq_hits::.switch_cpus_1.data    112522189                       # number of WriteReq hits
system.cpu.dcache.WriteReq_hits::total      296914693                       # number of WriteReq hits
system.cpu.dcache.WriteReq_misses::.cpu.data       215427                       # number of WriteReq misses
system.cpu.dcache.WriteReq_misses::.switch_cpus.data         8024                       # number of WriteReq misses
system.cpu.dcache.WriteReq_misses::.switch_cpus_1.data       400208                       # number of WriteReq misses
system.cpu.dcache.WriteReq_misses::total       623659                       # number of WriteReq misses
system.cpu.dcache.WriteReq_miss_latency::.switch_cpus.data    519154000                       # number of WriteReq miss cycles
system.cpu.dcache.WriteReq_miss_latency::.switch_cpus_1.data  21026971066                       # number of WriteReq miss cycles
system.cpu.dcache.WriteReq_miss_latency::total  21546125066                       # number of WriteReq miss cycles
system.cpu.dcache.WriteReq_accesses::.cpu.data    175799181                       # number of WriteReq accesses(hits+misses)
system.cpu.dcache.WriteReq_accesses::.switch_cpus.data      8816774                       # number of WriteReq accesses(hits+misses)
system.cpu.dcache.WriteReq_accesses::.switch_cpus_1.data    112922397                       # number of WriteReq accesses(hits+misses)
system.cpu.dcache.WriteReq_accesses::total    297538352                       # number of WriteReq accesses(hits+misses)
system.cpu.dcache.WriteReq_miss_rate::.cpu.data     0.001225                       # miss rate for WriteReq accesses
system.cpu.dcache.WriteReq_miss_rate::.switch_cpus.data     0.000910                       # miss rate for WriteReq accesses
system.cpu.dcache.WriteReq_miss_rate::.switch_cpus_1.data     0.003544                       # miss rate for WriteReq accesses
system.cpu.dcache.WriteReq_miss_rate::total     0.002096                       # miss rate for WriteReq accesses
system.cpu.dcache.WriteReq_avg_miss_latency::.switch_cpus.data 64700.149551                       # average WriteReq miss latency
system.cpu.dcache.WriteReq_avg_miss_latency::.switch_cpus_1.data 52540.106809                       # average WriteReq miss latency
system.cpu.dcache.WriteReq_avg_miss_latency::total 34547.926136                       # average WriteReq miss latency
system.cpu.dcache.WriteReq_mshr_hits::.switch_cpus_1.data         1705                       # number of WriteReq MSHR hits
system.cpu.dcache.WriteReq_mshr_hits::total         1705                       # number of WriteReq MSHR hits
system.cpu.dcache.WriteReq_mshr_misses::.switch_cpus.data         8024                       # number of WriteReq MSHR misses
system.cpu.dcache.WriteReq_mshr_misses::.switch_cpus_1.data       398503                       # number of WriteReq MSHR misses
system.cpu.dcache.WriteReq_mshr_misses::total       406527                       # number of WriteReq MSHR misses
system.cpu.dcache.WriteReq_mshr_miss_latency::.switch_cpus.data    511130000                       # number of WriteReq MSHR miss cycles
system.cpu.dcache.WriteReq_mshr_miss_latency::.switch_cpus_1.data  20626675066                       # number of WriteReq MSHR miss cycles
system.cpu.dcache.WriteReq_mshr_miss_latency::total  21137805066                       # number of WriteReq MSHR miss cycles
system.cpu.dcache.WriteReq_mshr_miss_rate::.switch_cpus.data     0.000910                       # mshr miss rate for WriteReq accesses
system.cpu.dcache.WriteReq_mshr_miss_rate::.switch_cpus_1.data     0.003529                       # mshr miss rate for WriteReq accesses
system.cpu.dcache.WriteReq_mshr_miss_rate::total     0.001366                       # mshr miss rate for WriteReq accesses
system.cpu.dcache.WriteReq_avg_mshr_miss_latency::.switch_cpus.data 63700.149551                       # average WriteReq mshr miss latency
system.cpu.dcache.WriteReq_avg_mshr_miss_latency::.switch_cpus_1.data 51760.400966                       # average WriteReq mshr miss latency
system.cpu.dcache.WriteReq_avg_mshr_miss_latency::total 51996.066844                       # average WriteReq mshr miss latency
system.cpu.dcache.power_state.pwrStateResidencyTicks::UNDEFINED 1646035845500                       # Cumulative time (in ticks) in various power states
system.cpu.dcache.tags.tagsinuse           511.995542                       # Cycle average of tags in use
system.cpu.dcache.tags.total_refs           757001664                       # Total number of references to valid blocks.
system.cpu.dcache.tags.sampled_refs           1792427                       # Sample count of references to valid blocks.
system.cpu.dcache.tags.avg_refs            422.333330                       # Average number of references to valid blocks.
system.cpu.dcache.tags.warmup_cycle              1500                       # Cycle when the warmup percentage was hit.
system.cpu.dcache.tags.occ_blocks::.cpu.data   373.333636                       # Average occupied blocks per requestor
system.cpu.dcache.tags.occ_blocks::.switch_cpus.data    22.360366                       # Average occupied blocks per requestor
system.cpu.dcache.tags.occ_blocks::.switch_cpus_1.data   116.301540                       # Average occupied blocks per requestor
system.cpu.dcache.tags.occ_percent::.cpu.data     0.729167                       # Average percentage of cache occupancy
system.cpu.dcache.tags.occ_percent::.switch_cpus.data     0.043673                       # Average percentage of cache occupancy
system.cpu.dcache.tags.occ_percent::.switch_cpus_1.data     0.227151                       # Average percentage of cache occupancy
system.cpu.dcache.tags.occ_percent::total     0.999991                       # Average percentage of cache occupancy
system.cpu.dcache.tags.occ_task_id_blocks::1024          512                       # Occupied blocks per task id
system.cpu.dcache.tags.age_task_id_blocks_1024::0            1                       # Occupied blocks per task id
system.cpu.dcache.tags.age_task_id_blocks_1024::1           10                       # Occupied blocks per task id
system.cpu.dcache.tags.age_task_id_blocks_1024::2          103                       # Occupied blocks per task id
system.cpu.dcache.tags.age_task_id_blocks_1024::3          229                       # Occupied blocks per task id
system.cpu.dcache.tags.age_task_id_blocks_1024::4          169                       # Occupied blocks per task id
system.cpu.dcache.tags.occ_task_id_percent::1024            1                       # Percentage of cache occupancy per task id
system.cpu.dcache.tags.tag_accesses        3051036731                       # Number of tag accesses
system.cpu.dcache.tags.data_accesses       3051036731                       # Number of data accesses
system.cpu.dcache.tags.power_state.pwrStateResidencyTicks::UNDEFINED 1646035845500                       # Cumulative time (in ticks) in various power states
system.cpu.power_state.numTransitions               2                       # Number of power state transitions
system.cpu.power_state.pwrStateResidencyTicks::ON 1169538804500                       # Cumulative time (in ticks) in various power states
system.cpu.power_state.pwrStateResidencyTicks::OFF 476497041000                       # Cumulative time (in ticks) in various power states

---------- End Simulation Statistics   ----------
