
---------- Begin Simulation Statistics ----------
final_tick                               1764357090500                       # Number of ticks from beginning of simulation (restored from checkpoints and never reset)
host_inst_rate                                 195999                       # Simulator instruction rate (inst/s)
host_mem_usage                                4605652                       # Number of bytes of host memory used
host_op_rate                                   328999                       # Simulator op (including micro ops) rate (op/s)
host_seconds                                 10459.25                       # Real time elapsed on the host
host_tick_rate                               51000706                       # Simulator tick rate (ticks/s)
sim_freq                                 1000000000000                       # Frequency of simulated ticks
sim_insts                                  2050000005                       # Number of instructions simulated
sim_ops                                    3441082228                       # Number of ops (including micro ops) simulated
sim_seconds                                  0.533429                       # Number of seconds simulated
sim_ticks                                533428906250                       # Number of ticks simulated
system.cpu.committedInsts                           0                       # Number of instructions committed
system.cpu.committedOps                             0                       # Number of ops (including micro ops) committed
system.cpu.dtb.rdAccesses                           0                       # TLB accesses on read requests
system.cpu.dtb.rdMisses                             0                       # TLB misses on read requests
system.cpu.dtb.wrAccesses                           0                       # TLB accesses on write requests
system.cpu.dtb.wrMisses                             0                       # TLB misses on write requests
system.cpu.idle_fraction                            0                       # Percentage of idle cycles
system.cpu.itb.rdAccesses                           0                       # TLB accesses on read requests
system.cpu.itb.rdMisses                             0                       # TLB misses on read requests
system.cpu.itb.wrAccesses                           0                       # TLB accesses on write requests
system.cpu.itb.wrMisses                             0                       # TLB misses on write requests
system.cpu.not_idle_fraction                        1                       # Percentage of non-idle cycles
system.cpu.numCycles                                0                       # number of cpu cycles simulated
system.cpu.numWorkItemsCompleted                    0                       # number of work items this cpu completed
system.cpu.numWorkItemsStarted                      0                       # number of work items this cpu started
system.cpu.num_busy_cycles                          0                       # Number of busy cycles
system.cpu.num_conditional_control_insts            0                       # number of instructions that are conditional controls
system.cpu.num_fp_alu_accesses                      0                       # Number of float alu accesses
system.cpu.num_fp_insts                             0                       # number of float instructions
system.cpu.num_fp_register_reads                    0                       # number of times the floating registers were read
system.cpu.num_fp_register_writes                   0                       # number of times the floating registers were written
system.cpu.num_func_calls                           0                       # number of times a function call or return occured
system.cpu.num_idle_cycles                          0                       # Number of idle cycles
system.cpu.num_int_alu_accesses                     0                       # Number of integer alu accesses
system.cpu.num_int_insts                            0                       # number of integer instructions
system.cpu.num_int_register_reads                   0                       # number of times the integer registers were read
system.cpu.num_int_register_writes                  0                       # number of times the integer registers were written
system.cpu.num_load_insts                           0                       # Number of load instructions
system.cpu.num_mem_refs                             0                       # number of memory refs
system.cpu.num_store_insts                          0                       # Number of store instructions
system.cpu.num_vec_alu_accesses                     0                       # Number of vector alu accesses
system.cpu.num_vec_insts                            0                       # number of vector instructions
system.cpu.num_vec_register_reads                   0                       # number of times the vector registers were read
system.cpu.num_vec_register_writes                  0                       # number of times the vector registers were written
system.cpu.op_class::No_OpClass                     0                       # Class of executed instruction
system.cpu.op_class::IntAlu                         0                       # Class of executed instruction
system.cpu.op_class::IntMult                        0                       # Class of executed instruction
system.cpu.op_class::IntDiv                         0                       # Class of executed instruction
system.cpu.op_class::FloatAdd                       0                       # Class of executed instruction
system.cpu.op_class::FloatCmp                       0                       # Class of executed instruction
system.cpu.op_class::FloatCvt                       0                       # Class of executed instruction
system.cpu.op_class::FloatMult                      0                       # Class of executed instruction
system.cpu.op_class::FloatMultAcc                   0                       # Class of executed instruction
system.cpu.op_class::FloatDiv                       0                       # Class of executed instruction
system.cpu.op_class::FloatMisc                      0                       # Class of executed instruction
system.cpu.op_class::FloatSqrt                      0                       # Class of executed instruction
system.cpu.op_class::SimdAdd                        0                       # Class of executed instruction
system.cpu.op_class::SimdAddAcc                     0                       # Class of executed instruction
system.cpu.op_class::SimdAlu                        0                       # Class of executed instruction
system.cpu.op_class::SimdCmp                        0                       # Class of executed instruction
system.cpu.op_class::SimdCvt                        0                       # Class of executed instruction
system.cpu.op_class::SimdMisc                       0                       # Class of executed instruction
system.cpu.op_class::SimdMult                       0                       # Class of executed instruction
system.cpu.op_class::SimdMultAcc                    0                       # Class of executed instruction
system.cpu.op_class::SimdShift                      0                       # Class of executed instruction
system.cpu.op_class::SimdShiftAcc                   0                       # Class of executed instruction
system.cpu.op_class::SimdDiv                        0                       # Class of executed instruction
system.cpu.op_class::SimdSqrt                       0                       # Class of executed instruction
system.cpu.op_class::SimdFloatAdd                   0                       # Class of executed instruction
system.cpu.op_class::SimdFloatAlu                   0                       # Class of executed instruction
system.cpu.op_class::SimdFloatCmp                   0                       # Class of executed instruction
system.cpu.op_class::SimdFloatCvt                   0                       # Class of executed instruction
system.cpu.op_class::SimdFloatDiv                   0                       # Class of executed instruction
system.cpu.op_class::SimdFloatMisc                  0                       # Class of executed instruction
system.cpu.op_class::SimdFloatMult                  0                       # Class of executed instruction
system.cpu.op_class::SimdFloatMultAcc               0                       # Class of executed instruction
system.cpu.op_class::SimdFloatSqrt                  0                       # Class of executed instruction
system.cpu.op_class::SimdReduceAdd                  0                       # Class of executed instruction
system.cpu.op_class::SimdReduceAlu                  0                       # Class of executed instruction
system.cpu.op_class::SimdReduceCmp                  0                       # Class of executed instruction
system.cpu.op_class::SimdFloatReduceAdd             0                       # Class of executed instruction
system.cpu.op_class::SimdFloatReduceCmp             0                       # Class of executed instruction
system.cpu.op_class::SimdAes                        0                       # Class of executed instruction
system.cpu.op_class::SimdAesMix                     0                       # Class of executed instruction
system.cpu.op_class::SimdSha1Hash                   0                       # Class of executed instruction
system.cpu.op_class::SimdSha1Hash2                  0                       # Class of executed instruction
system.cpu.op_class::SimdSha256Hash                 0                       # Class of executed instruction
system.cpu.op_class::SimdSha256Hash2                0                       # Class of executed instruction
system.cpu.op_class::SimdShaSigma2                  0                       # Class of executed instruction
system.cpu.op_class::SimdShaSigma3                  0                       # Class of executed instruction
system.cpu.op_class::SimdPredAlu                    0                       # Class of executed instruction
system.cpu.op_class::MemRead                        0                       # Class of executed instruction
system.cpu.op_class::MemWrite                       0                       # Class of executed instruction
system.cpu.op_class::FloatMemRead                   0                       # Class of executed instruction
system.cpu.op_class::FloatMemWrite                  0                       # Class of executed instruction
system.cpu.op_class::IprAccess                      0                       # Class of executed instruction
system.cpu.op_class::InstPrefetch                   0                       # Class of executed instruction
system.cpu.op_class::total                          0                       # Class of executed instruction
system.cpu.workload.numSyscalls                     0                       # Number of system calls
system.membus.snoop_filter.hit_multi_requests            0                       # Number of requests hitting in the snoop filter with multiple (>1) holders of the requested data.
system.membus.snoop_filter.hit_multi_snoops            0                       # Number of snoops hitting in the snoop filter with multiple (>1) holders of the requested data.
system.membus.snoop_filter.hit_single_requests      5020399                       # Number of requests hitting in the snoop filter with a single holder of the requested data.
system.membus.snoop_filter.hit_single_snoops            0                       # Number of snoops hitting in the snoop filter with a single holder of the requested data.
system.membus.snoop_filter.tot_requests      10040819                       # Total number of requests made to the snoop filter.
system.membus.snoop_filter.tot_snoops               0                       # Total number of snoops made to the snoop filter.
system.switch_cpus.committedInsts                   0                       # Number of instructions committed
system.switch_cpus.committedOps                     0                       # Number of ops (including micro ops) committed
system.switch_cpus.dtb.rdAccesses                   0                       # TLB accesses on read requests
system.switch_cpus.dtb.rdMisses                     0                       # TLB misses on read requests
system.switch_cpus.dtb.wrAccesses                   0                       # TLB accesses on write requests
system.switch_cpus.dtb.wrMisses                     0                       # TLB misses on write requests
system.switch_cpus.idle_fraction                    0                       # Percentage of idle cycles
system.switch_cpus.itb.rdAccesses                   0                       # TLB accesses on read requests
system.switch_cpus.itb.rdMisses                     0                       # TLB misses on read requests
system.switch_cpus.itb.wrAccesses                   0                       # TLB accesses on write requests
system.switch_cpus.itb.wrMisses                     0                       # TLB misses on write requests
system.switch_cpus.not_idle_fraction                1                       # Percentage of non-idle cycles
system.switch_cpus.numCycles                        0                       # number of cpu cycles simulated
system.switch_cpus.numWorkItemsCompleted            0                       # number of work items this cpu completed
system.switch_cpus.numWorkItemsStarted              0                       # number of work items this cpu started
system.switch_cpus.num_busy_cycles                  0                       # Number of busy cycles
system.switch_cpus.num_conditional_control_insts            0                       # number of instructions that are conditional controls
system.switch_cpus.num_fp_alu_accesses              0                       # Number of float alu accesses
system.switch_cpus.num_fp_insts                     0                       # number of float instructions
system.switch_cpus.num_fp_register_reads            0                       # number of times the floating registers were read
system.switch_cpus.num_fp_register_writes            0                       # number of times the floating registers were written
system.switch_cpus.num_func_calls                   0                       # number of times a function call or return occured
system.switch_cpus.num_idle_cycles                  0                       # Number of idle cycles
system.switch_cpus.num_int_alu_accesses             0                       # Number of integer alu accesses
system.switch_cpus.num_int_insts                    0                       # number of integer instructions
system.switch_cpus.num_int_register_reads            0                       # number of times the integer registers were read
system.switch_cpus.num_int_register_writes            0                       # number of times the integer registers were written
system.switch_cpus.num_load_insts                   0                       # Number of load instructions
system.switch_cpus.num_mem_refs                     0                       # number of memory refs
system.switch_cpus.num_store_insts                  0                       # Number of store instructions
system.switch_cpus.num_vec_alu_accesses             0                       # Number of vector alu accesses
system.switch_cpus.num_vec_insts                    0                       # number of vector instructions
system.switch_cpus.num_vec_register_reads            0                       # number of times the vector registers were read
system.switch_cpus.num_vec_register_writes            0                       # number of times the vector registers were written
system.switch_cpus.op_class::No_OpClass             0                       # Class of executed instruction
system.switch_cpus.op_class::IntAlu                 0                       # Class of executed instruction
system.switch_cpus.op_class::IntMult                0                       # Class of executed instruction
system.switch_cpus.op_class::IntDiv                 0                       # Class of executed instruction
system.switch_cpus.op_class::FloatAdd               0                       # Class of executed instruction
system.switch_cpus.op_class::FloatCmp               0                       # Class of executed instruction
system.switch_cpus.op_class::FloatCvt               0                       # Class of executed instruction
system.switch_cpus.op_class::FloatMult              0                       # Class of executed instruction
system.switch_cpus.op_class::FloatMultAcc            0                       # Class of executed instruction
system.switch_cpus.op_class::FloatDiv               0                       # Class of executed instruction
system.switch_cpus.op_class::FloatMisc              0                       # Class of executed instruction
system.switch_cpus.op_class::FloatSqrt              0                       # Class of executed instruction
system.switch_cpus.op_class::SimdAdd                0                       # Class of executed instruction
system.switch_cpus.op_class::SimdAddAcc             0                       # Class of executed instruction
system.switch_cpus.op_class::SimdAlu                0                       # Class of executed instruction
system.switch_cpus.op_class::SimdCmp                0                       # Class of executed instruction
system.switch_cpus.op_class::SimdCvt                0                       # Class of executed instruction
system.switch_cpus.op_class::SimdMisc               0                       # Class of executed instruction
system.switch_cpus.op_class::SimdMult               0                       # Class of executed instruction
system.switch_cpus.op_class::SimdMultAcc            0                       # Class of executed instruction
system.switch_cpus.op_class::SimdShift              0                       # Class of executed instruction
system.switch_cpus.op_class::SimdShiftAcc            0                       # Class of executed instruction
system.switch_cpus.op_class::SimdDiv                0                       # Class of executed instruction
system.switch_cpus.op_class::SimdSqrt               0                       # Class of executed instruction
system.switch_cpus.op_class::SimdFloatAdd            0                       # Class of executed instruction
system.switch_cpus.op_class::SimdFloatAlu            0                       # Class of executed instruction
system.switch_cpus.op_class::SimdFloatCmp            0                       # Class of executed instruction
system.switch_cpus.op_class::SimdFloatCvt            0                       # Class of executed instruction
system.switch_cpus.op_class::SimdFloatDiv            0                       # Class of executed instruction
system.switch_cpus.op_class::SimdFloatMisc            0                       # Class of executed instruction
system.switch_cpus.op_class::SimdFloatMult            0                       # Class of executed instruction
system.switch_cpus.op_class::SimdFloatMultAcc            0                       # Class of executed instruction
system.switch_cpus.op_class::SimdFloatSqrt            0                       # Class of executed instruction
system.switch_cpus.op_class::SimdReduceAdd            0                       # Class of executed instruction
system.switch_cpus.op_class::SimdReduceAlu            0                       # Class of executed instruction
system.switch_cpus.op_class::SimdReduceCmp            0                       # Class of executed instruction
system.switch_cpus.op_class::SimdFloatReduceAdd            0                       # Class of executed instruction
system.switch_cpus.op_class::SimdFloatReduceCmp            0                       # Class of executed instruction
system.switch_cpus.op_class::SimdAes                0                       # Class of executed instruction
system.switch_cpus.op_class::SimdAesMix             0                       # Class of executed instruction
system.switch_cpus.op_class::SimdSha1Hash            0                       # Class of executed instruction
system.switch_cpus.op_class::SimdSha1Hash2            0                       # Class of executed instruction
system.switch_cpus.op_class::SimdSha256Hash            0                       # Class of executed instruction
system.switch_cpus.op_class::SimdSha256Hash2            0                       # Class of executed instruction
system.switch_cpus.op_class::SimdShaSigma2            0                       # Class of executed instruction
system.switch_cpus.op_class::SimdShaSigma3            0                       # Class of executed instruction
system.switch_cpus.op_class::SimdPredAlu            0                       # Class of executed instruction
system.switch_cpus.op_class::MemRead                0                       # Class of executed instruction
system.switch_cpus.op_class::MemWrite               0                       # Class of executed instruction
system.switch_cpus.op_class::FloatMemRead            0                       # Class of executed instruction
system.switch_cpus.op_class::FloatMemWrite            0                       # Class of executed instruction
system.switch_cpus.op_class::IprAccess              0                       # Class of executed instruction
system.switch_cpus.op_class::InstPrefetch            0                       # Class of executed instruction
system.switch_cpus.op_class::total                  0                       # Class of executed instruction
system.switch_cpus_1.branchPred.BTBCorrect            0                       # Number of correct BTB predictions (this stat may not work properly.
system.switch_cpus_1.branchPred.BTBHitPct          nan                       # BTB Hit Percentage
system.switch_cpus_1.branchPred.BTBHits             0                       # Number of BTB hits
system.switch_cpus_1.branchPred.BTBLookups            0                       # Number of BTB lookups
system.switch_cpus_1.branchPred.RASInCorrect            0                       # Number of incorrect RAS predictions.
system.switch_cpus_1.branchPred.condIncorrect        10532                       # Number of conditional branches incorrect
system.switch_cpus_1.branchPred.condPredicted      1270567                       # Number of conditional branches predicted
system.switch_cpus_1.branchPred.indirectHits      1257366                       # Number of indirect target hits.
system.switch_cpus_1.branchPred.indirectLookups      1257688                       # Number of indirect predictor lookups.
system.switch_cpus_1.branchPred.indirectMisses          322                       # Number of indirect misses.
system.switch_cpus_1.branchPred.lookups       1270769                       # Number of BP lookups
system.switch_cpus_1.branchPred.usedRAS             0                       # Number of times the RAS was used to get a target.
system.switch_cpus_1.branchPredindirectMispredicted           65                       # Number of mispredicted indirect branches.
system.switch_cpus_1.cc_regfile_reads         6288697                       # number of cc regfile reads
system.switch_cpus_1.cc_regfile_writes       38415924                       # number of cc regfile writes
system.switch_cpus_1.commit.amos                    0                       # Number of atomic instructions committed
system.switch_cpus_1.commit.branchMispredicts        10532                       # The number of times a branch was mispredicted
system.switch_cpus_1.commit.branches          1250333                       # Number of branches committed
system.switch_cpus_1.commit.bw_lim_events    115023293                       # number cycles where commit BW limit reached
system.switch_cpus_1.commit.commitSquashedInsts      1364755                       # The number of squashed insts skipped by commit
system.switch_cpus_1.commit.committedInsts   1000000003                       # Number of instructions committed
system.switch_cpus_1.commit.committedOps   1584747972                       # Number of ops (including micro ops) committed
system.switch_cpus_1.commit.committed_per_cycle::samples   1066667371                       # Number of insts commited each cycle
system.switch_cpus_1.commit.committed_per_cycle::mean     1.485700                       # Number of insts commited each cycle
system.switch_cpus_1.commit.committed_per_cycle::stdev     2.738933                       # Number of insts commited each cycle
system.switch_cpus_1.commit.committed_per_cycle::underflows            0      0.00%      0.00% # Number of insts commited each cycle
system.switch_cpus_1.commit.committed_per_cycle::0    750021469     70.31%     70.31% # Number of insts commited each cycle
system.switch_cpus_1.commit.committed_per_cycle::1     55036411      5.16%     75.47% # Number of insts commited each cycle
system.switch_cpus_1.commit.committed_per_cycle::2     31196092      2.92%     78.40% # Number of insts commited each cycle
system.switch_cpus_1.commit.committed_per_cycle::3     28276796      2.65%     81.05% # Number of insts commited each cycle
system.switch_cpus_1.commit.committed_per_cycle::4     26763900      2.51%     83.56% # Number of insts commited each cycle
system.switch_cpus_1.commit.committed_per_cycle::5     24386668      2.29%     85.85% # Number of insts commited each cycle
system.switch_cpus_1.commit.committed_per_cycle::6     18425489      1.73%     87.57% # Number of insts commited each cycle
system.switch_cpus_1.commit.committed_per_cycle::7     17537253      1.64%     89.22% # Number of insts commited each cycle
system.switch_cpus_1.commit.committed_per_cycle::8    115023293     10.78%    100.00% # Number of insts commited each cycle
system.switch_cpus_1.commit.committed_per_cycle::overflows            0      0.00%    100.00% # Number of insts commited each cycle
system.switch_cpus_1.commit.committed_per_cycle::min_value            0                       # Number of insts commited each cycle
system.switch_cpus_1.commit.committed_per_cycle::max_value            8                       # Number of insts commited each cycle
system.switch_cpus_1.commit.committed_per_cycle::total   1066667371                       # Number of insts commited each cycle
system.switch_cpus_1.commit.fp_insts       1452333631                       # Number of committed floating point instructions.
system.switch_cpus_1.commit.function_calls            0                       # Number of function calls committed.
system.switch_cpus_1.commit.int_insts       610441528                       # Number of committed integer instructions.
system.switch_cpus_1.commit.loads           430941180                       # Number of loads committed
system.switch_cpus_1.commit.membars                 0                       # Number of memory barriers committed
system.switch_cpus_1.commit.op_class_0::No_OpClass         5246      0.00%      0.00% # Class of committed instruction
system.switch_cpus_1.commit.op_class_0::IntAlu    341737216     21.56%     21.56% # Class of committed instruction
system.switch_cpus_1.commit.op_class_0::IntMult          301      0.00%     21.56% # Class of committed instruction
system.switch_cpus_1.commit.op_class_0::IntDiv            0      0.00%     21.56% # Class of committed instruction
system.switch_cpus_1.commit.op_class_0::FloatAdd    179881217     11.35%     32.92% # Class of committed instruction
system.switch_cpus_1.commit.op_class_0::FloatCmp            0      0.00%     32.92% # Class of committed instruction
system.switch_cpus_1.commit.op_class_0::FloatCvt            0      0.00%     32.92% # Class of committed instruction
system.switch_cpus_1.commit.op_class_0::FloatMult            0      0.00%     32.92% # Class of committed instruction
system.switch_cpus_1.commit.op_class_0::FloatMultAcc            0      0.00%     32.92% # Class of committed instruction
system.switch_cpus_1.commit.op_class_0::FloatDiv            0      0.00%     32.92% # Class of committed instruction
system.switch_cpus_1.commit.op_class_0::FloatMisc            0      0.00%     32.92% # Class of committed instruction
system.switch_cpus_1.commit.op_class_0::FloatSqrt            0      0.00%     32.92% # Class of committed instruction
system.switch_cpus_1.commit.op_class_0::SimdAdd            0      0.00%     32.92% # Class of committed instruction
system.switch_cpus_1.commit.op_class_0::SimdAddAcc            0      0.00%     32.92% # Class of committed instruction
system.switch_cpus_1.commit.op_class_0::SimdAlu     19397194      1.22%     34.14% # Class of committed instruction
system.switch_cpus_1.commit.op_class_0::SimdCmp            0      0.00%     34.14% # Class of committed instruction
system.switch_cpus_1.commit.op_class_0::SimdCvt            0      0.00%     34.14% # Class of committed instruction
system.switch_cpus_1.commit.op_class_0::SimdMisc            0      0.00%     34.14% # Class of committed instruction
system.switch_cpus_1.commit.op_class_0::SimdMult            0      0.00%     34.14% # Class of committed instruction
system.switch_cpus_1.commit.op_class_0::SimdMultAcc            0      0.00%     34.14% # Class of committed instruction
system.switch_cpus_1.commit.op_class_0::SimdShift            0      0.00%     34.14% # Class of committed instruction
system.switch_cpus_1.commit.op_class_0::SimdShiftAcc            0      0.00%     34.14% # Class of committed instruction
system.switch_cpus_1.commit.op_class_0::SimdDiv            0      0.00%     34.14% # Class of committed instruction
system.switch_cpus_1.commit.op_class_0::SimdSqrt            0      0.00%     34.14% # Class of committed instruction
system.switch_cpus_1.commit.op_class_0::SimdFloatAdd    287018073     18.11%     52.25% # Class of committed instruction
system.switch_cpus_1.commit.op_class_0::SimdFloatAlu            0      0.00%     52.25% # Class of committed instruction
system.switch_cpus_1.commit.op_class_0::SimdFloatCmp            0      0.00%     52.25% # Class of committed instruction
system.switch_cpus_1.commit.op_class_0::SimdFloatCvt            0      0.00%     52.25% # Class of committed instruction
system.switch_cpus_1.commit.op_class_0::SimdFloatDiv       605293      0.04%     52.29% # Class of committed instruction
system.switch_cpus_1.commit.op_class_0::SimdFloatMisc            0      0.00%     52.29% # Class of committed instruction
system.switch_cpus_1.commit.op_class_0::SimdFloatMult    211344661     13.34%     65.62% # Class of committed instruction
system.switch_cpus_1.commit.op_class_0::SimdFloatMultAcc            0      0.00%     65.62% # Class of committed instruction
system.switch_cpus_1.commit.op_class_0::SimdFloatSqrt            0      0.00%     65.62% # Class of committed instruction
system.switch_cpus_1.commit.op_class_0::SimdReduceAdd            0      0.00%     65.62% # Class of committed instruction
system.switch_cpus_1.commit.op_class_0::SimdReduceAlu            0      0.00%     65.62% # Class of committed instruction
system.switch_cpus_1.commit.op_class_0::SimdReduceCmp            0      0.00%     65.62% # Class of committed instruction
system.switch_cpus_1.commit.op_class_0::SimdFloatReduceAdd            0      0.00%     65.62% # Class of committed instruction
system.switch_cpus_1.commit.op_class_0::SimdFloatReduceCmp            0      0.00%     65.62% # Class of committed instruction
system.switch_cpus_1.commit.op_class_0::SimdAes            0      0.00%     65.62% # Class of committed instruction
system.switch_cpus_1.commit.op_class_0::SimdAesMix            0      0.00%     65.62% # Class of committed instruction
system.switch_cpus_1.commit.op_class_0::SimdSha1Hash            0      0.00%     65.62% # Class of committed instruction
system.switch_cpus_1.commit.op_class_0::SimdSha1Hash2            0      0.00%     65.62% # Class of committed instruction
system.switch_cpus_1.commit.op_class_0::SimdSha256Hash            0      0.00%     65.62% # Class of committed instruction
system.switch_cpus_1.commit.op_class_0::SimdSha256Hash2            0      0.00%     65.62% # Class of committed instruction
system.switch_cpus_1.commit.op_class_0::SimdShaSigma2            0      0.00%     65.62% # Class of committed instruction
system.switch_cpus_1.commit.op_class_0::SimdShaSigma3            0      0.00%     65.62% # Class of committed instruction
system.switch_cpus_1.commit.op_class_0::SimdPredAlu            0      0.00%     65.62% # Class of committed instruction
system.switch_cpus_1.commit.op_class_0::MemRead     56009895      3.53%     69.16% # Class of committed instruction
system.switch_cpus_1.commit.op_class_0::MemWrite     10716443      0.68%     69.84% # Class of committed instruction
system.switch_cpus_1.commit.op_class_0::FloatMemRead    374931285     23.66%     93.49% # Class of committed instruction
system.switch_cpus_1.commit.op_class_0::FloatMemWrite    103101148      6.51%    100.00% # Class of committed instruction
system.switch_cpus_1.commit.op_class_0::IprAccess            0      0.00%    100.00% # Class of committed instruction
system.switch_cpus_1.commit.op_class_0::InstPrefetch            0      0.00%    100.00% # Class of committed instruction
system.switch_cpus_1.commit.op_class_0::total   1584747972                       # Class of committed instruction
system.switch_cpus_1.commit.refs            544758771                       # Number of memory references committed
system.switch_cpus_1.commit.swp_count               0                       # Number of s/w prefetches committed
system.switch_cpus_1.commit.vec_insts               0                       # Number of committed Vector instructions.
system.switch_cpus_1.committedInsts        1000000003                       # Number of Instructions Simulated
system.switch_cpus_1.committedOps          1584747972                       # Number of Ops (including micro ops) Simulated
system.switch_cpus_1.cpi                     1.066858                       # CPI: Cycles Per Instruction
system.switch_cpus_1.cpi_total               1.066858                       # CPI: Total CPI of All Threads
system.switch_cpus_1.decode.BlockedCycles    752224083                       # Number of cycles decode is blocked
system.switch_cpus_1.decode.DecodedInsts   1586410862                       # Number of instructions handled by decode
system.switch_cpus_1.decode.IdleCycles       84965557                       # Number of cycles decode is idle
system.switch_cpus_1.decode.RunCycles       203713174                       # Number of cycles decode is running
system.switch_cpus_1.decode.SquashCycles        30004                       # Number of cycles decode is squashing
system.switch_cpus_1.decode.UnblockCycles     25924944                       # Number of cycles decode is unblocking
system.switch_cpus_1.dtb.rdAccesses         431376394                       # TLB accesses on read requests
system.switch_cpus_1.dtb.rdMisses               58866                       # TLB misses on read requests
system.switch_cpus_1.dtb.wrAccesses         113975179                       # TLB accesses on write requests
system.switch_cpus_1.dtb.wrMisses               38048                       # TLB misses on write requests
system.switch_cpus_1.fetch.Branches           1270769                       # Number of branches that fetch encountered
system.switch_cpus_1.fetch.CacheLines       101543669                       # Number of cache lines fetched
system.switch_cpus_1.fetch.Cycles           965273335                       # Number of cycles fetch has run and was not squashing or blocked
system.switch_cpus_1.fetch.IcacheSquashes         5140                       # Number of outstanding Icache misses that were squashed
system.switch_cpus_1.fetch.Insts           1001628893                       # Number of instructions fetch has processed
system.switch_cpus_1.fetch.SquashCycles         60008                       # Number of cycles fetch has spent squashing
system.switch_cpus_1.fetch.branchRate        0.001191                       # Number of branch fetches per cycle
system.switch_cpus_1.fetch.icacheStallCycles    101554472                       # Number of cycles fetch is stalled on an Icache miss
system.switch_cpus_1.fetch.predictedBranches      1257366                       # Number of branches that fetch has predicted taken
system.switch_cpus_1.fetch.rate              0.938859                       # Number of inst fetches per cycle
system.switch_cpus_1.fetch.rateDist::samples   1066857811                       # Number of instructions fetched each cycle (Total)
system.switch_cpus_1.fetch.rateDist::mean     1.487706                       # Number of instructions fetched each cycle (Total)
system.switch_cpus_1.fetch.rateDist::stdev     2.949824                       # Number of instructions fetched each cycle (Total)
system.switch_cpus_1.fetch.rateDist::underflows            0      0.00%      0.00% # Number of instructions fetched each cycle (Total)
system.switch_cpus_1.fetch.rateDist::0      820248521     76.88%     76.88% # Number of instructions fetched each cycle (Total)
system.switch_cpus_1.fetch.rateDist::1       20233708      1.90%     78.78% # Number of instructions fetched each cycle (Total)
system.switch_cpus_1.fetch.rateDist::2       14295338      1.34%     80.12% # Number of instructions fetched each cycle (Total)
system.switch_cpus_1.fetch.rateDist::3        7834729      0.73%     80.86% # Number of instructions fetched each cycle (Total)
system.switch_cpus_1.fetch.rateDist::4        8392692      0.79%     81.64% # Number of instructions fetched each cycle (Total)
system.switch_cpus_1.fetch.rateDist::5       13996280      1.31%     82.95% # Number of instructions fetched each cycle (Total)
system.switch_cpus_1.fetch.rateDist::6       13482100      1.26%     84.22% # Number of instructions fetched each cycle (Total)
system.switch_cpus_1.fetch.rateDist::7       16597883      1.56%     85.77% # Number of instructions fetched each cycle (Total)
system.switch_cpus_1.fetch.rateDist::8      151776560     14.23%    100.00% # Number of instructions fetched each cycle (Total)
system.switch_cpus_1.fetch.rateDist::overflows            0      0.00%    100.00% # Number of instructions fetched each cycle (Total)
system.switch_cpus_1.fetch.rateDist::min_value            0                       # Number of instructions fetched each cycle (Total)
system.switch_cpus_1.fetch.rateDist::max_value            8                       # Number of instructions fetched each cycle (Total)
system.switch_cpus_1.fetch.rateDist::total   1066857811                       # Number of instructions fetched each cycle (Total)
system.switch_cpus_1.fp_regfile_reads      2191736978                       # number of floating regfile reads
system.switch_cpus_1.fp_regfile_writes     1349855209                       # number of floating regfile writes
system.switch_cpus_1.idleCycles                     1                       # Total number of cycles that the CPU has spent unscheduled due to idling
system.switch_cpus_1.iew.branchMispredicts        10616                       # Number of branch mispredicts detected at execute
system.switch_cpus_1.iew.exec_branches        1259858                       # Number of branches executed
system.switch_cpus_1.iew.exec_nop                   0                       # number of nop insts executed
system.switch_cpus_1.iew.exec_rate           1.512880                       # Inst execution rate
system.switch_cpus_1.iew.exec_refs          573540462                       # number of memory reference insts executed
system.switch_cpus_1.iew.exec_stores        113975179                       # Number of stores executed
system.switch_cpus_1.iew.exec_swp                   0                       # number of swp insts executed
system.switch_cpus_1.iew.iewBlockCycles      86696352                       # Number of cycles IEW is blocking
system.switch_cpus_1.iew.iewDispLoadInsts    431420480                       # Number of dispatched load instructions
system.switch_cpus_1.iew.iewDispNonSpecInsts            0                       # Number of dispatched non-speculative instructions
system.switch_cpus_1.iew.iewDispSquashedInsts          181                       # Number of squashed instructions skipped by dispatch
system.switch_cpus_1.iew.iewDispStoreInsts    114031654                       # Number of dispatched store instructions
system.switch_cpus_1.iew.iewDispatchedInsts   1586094674                       # Number of instructions dispatched to IQ
system.switch_cpus_1.iew.iewExecLoadInsts    459565283                       # Number of load instructions executed
system.switch_cpus_1.iew.iewExecSquashedInsts        56160                       # Number of squashed instructions skipped in execute
system.switch_cpus_1.iew.iewExecutedInsts   1614027860                       # Number of executed instructions
system.switch_cpus_1.iew.iewIQFullEvents      1809854                       # Number of times the IQ has become full, causing a stall
system.switch_cpus_1.iew.iewIdleCycles              0                       # Number of cycles IEW is idle
system.switch_cpus_1.iew.iewLSQFullEvents    169690773                       # Number of times the LSQ has become full, causing a stall
system.switch_cpus_1.iew.iewSquashCycles        30004                       # Number of cycles IEW is squashing
system.switch_cpus_1.iew.iewUnblockCycles    173263544                       # Number of cycles IEW is unblocking
system.switch_cpus_1.iew.lsq.thread0.blockedLoads            0                       # Number of blocked loads due to partial load-store forwarding
system.switch_cpus_1.iew.lsq.thread0.cacheBlocked      4234264                       # Number of times an access to memory failed due to the cache being blocked
system.switch_cpus_1.iew.lsq.thread0.forwLoads     27140144                       # Number of loads that had data forwarded from stores
system.switch_cpus_1.iew.lsq.thread0.ignoredResponses           41                       # Number of memory responses ignored because the instruction is squashed
system.switch_cpus_1.iew.lsq.thread0.invAddrLoads            0                       # Number of loads ignored due to an invalid address
system.switch_cpus_1.iew.lsq.thread0.invAddrSwpfs            0                       # Number of software prefetches ignored due to an invalid address
system.switch_cpus_1.iew.lsq.thread0.memOrderViolation        13440                       # Number of memory ordering violations
system.switch_cpus_1.iew.lsq.thread0.rescheduledLoads            0                       # Number of loads that were rescheduled
system.switch_cpus_1.iew.lsq.thread0.squashedLoads       479299                       # Number of loads squashed
system.switch_cpus_1.iew.lsq.thread0.squashedStores       214062                       # Number of stores squashed
system.switch_cpus_1.iew.memOrderViolationEvents        13440                       # Number of memory order violations
system.switch_cpus_1.iew.predictedNotTakenIncorrect          235                       # Number of branches that were predicted not taken incorrectly
system.switch_cpus_1.iew.predictedTakenIncorrect        10381                       # Number of branches that were predicted taken incorrectly
system.switch_cpus_1.iew.wb_consumers      1766334410                       # num instructions consuming a value
system.switch_cpus_1.iew.wb_count          1585756182                       # cumulative count of insts written-back
system.switch_cpus_1.iew.wb_fanout           0.628932                       # average fanout of values written-back
system.switch_cpus_1.iew.wb_producers      1110904890                       # num instructions producing a value
system.switch_cpus_1.iew.wb_rate             1.486380                       # insts written-back per cycle
system.switch_cpus_1.iew.wb_sent           1585788836                       # cumulative count of insts sent to commit
system.switch_cpus_1.int_regfile_reads     1199759357                       # number of integer regfile reads
system.switch_cpus_1.int_regfile_writes     120693628                       # number of integer regfile writes
system.switch_cpus_1.ipc                     0.937332                       # IPC: Instructions Per Cycle
system.switch_cpus_1.ipc_total               0.937332                       # IPC: Total IPC of All Threads
system.switch_cpus_1.iq.FU_type_0::No_OpClass         5297      0.00%      0.00% # Type of FU issued
system.switch_cpus_1.iq.FU_type_0::IntAlu    341903636     21.18%     21.18% # Type of FU issued
system.switch_cpus_1.iq.FU_type_0::IntMult          344      0.00%     21.18% # Type of FU issued
system.switch_cpus_1.iq.FU_type_0::IntDiv            0      0.00%     21.18% # Type of FU issued
system.switch_cpus_1.iq.FU_type_0::FloatAdd    180036493     11.15%     32.34% # Type of FU issued
system.switch_cpus_1.iq.FU_type_0::FloatCmp            0      0.00%     32.34% # Type of FU issued
system.switch_cpus_1.iq.FU_type_0::FloatCvt            0      0.00%     32.34% # Type of FU issued
system.switch_cpus_1.iq.FU_type_0::FloatMult            0      0.00%     32.34% # Type of FU issued
system.switch_cpus_1.iq.FU_type_0::FloatMultAcc            0      0.00%     32.34% # Type of FU issued
system.switch_cpus_1.iq.FU_type_0::FloatDiv            0      0.00%     32.34% # Type of FU issued
system.switch_cpus_1.iq.FU_type_0::FloatMisc            0      0.00%     32.34% # Type of FU issued
system.switch_cpus_1.iq.FU_type_0::FloatSqrt            0      0.00%     32.34% # Type of FU issued
system.switch_cpus_1.iq.FU_type_0::SimdAdd            0      0.00%     32.34% # Type of FU issued
system.switch_cpus_1.iq.FU_type_0::SimdAddAcc            0      0.00%     32.34% # Type of FU issued
system.switch_cpus_1.iq.FU_type_0::SimdAlu     19419048      1.20%     33.54% # Type of FU issued
system.switch_cpus_1.iq.FU_type_0::SimdCmp            0      0.00%     33.54% # Type of FU issued
system.switch_cpus_1.iq.FU_type_0::SimdCvt            0      0.00%     33.54% # Type of FU issued
system.switch_cpus_1.iq.FU_type_0::SimdMisc            0      0.00%     33.54% # Type of FU issued
system.switch_cpus_1.iq.FU_type_0::SimdMult            0      0.00%     33.54% # Type of FU issued
system.switch_cpus_1.iq.FU_type_0::SimdMultAcc            0      0.00%     33.54% # Type of FU issued
system.switch_cpus_1.iq.FU_type_0::SimdShift            0      0.00%     33.54% # Type of FU issued
system.switch_cpus_1.iq.FU_type_0::SimdShiftAcc            0      0.00%     33.54% # Type of FU issued
system.switch_cpus_1.iq.FU_type_0::SimdDiv            0      0.00%     33.54% # Type of FU issued
system.switch_cpus_1.iq.FU_type_0::SimdSqrt            0      0.00%     33.54% # Type of FU issued
system.switch_cpus_1.iq.FU_type_0::SimdFloatAdd    287108599     17.79%     51.33% # Type of FU issued
system.switch_cpus_1.iq.FU_type_0::SimdFloatAlu            0      0.00%     51.33% # Type of FU issued
system.switch_cpus_1.iq.FU_type_0::SimdFloatCmp            0      0.00%     51.33% # Type of FU issued
system.switch_cpus_1.iq.FU_type_0::SimdFloatCvt            0      0.00%     51.33% # Type of FU issued
system.switch_cpus_1.iq.FU_type_0::SimdFloatDiv       605293      0.04%     51.37% # Type of FU issued
system.switch_cpus_1.iq.FU_type_0::SimdFloatMisc            0      0.00%     51.37% # Type of FU issued
system.switch_cpus_1.iq.FU_type_0::SimdFloatMult    211427109     13.10%     64.46% # Type of FU issued
system.switch_cpus_1.iq.FU_type_0::SimdFloatMultAcc            0      0.00%     64.46% # Type of FU issued
system.switch_cpus_1.iq.FU_type_0::SimdFloatSqrt            0      0.00%     64.46% # Type of FU issued
system.switch_cpus_1.iq.FU_type_0::SimdReduceAdd            0      0.00%     64.46% # Type of FU issued
system.switch_cpus_1.iq.FU_type_0::SimdReduceAlu            0      0.00%     64.46% # Type of FU issued
system.switch_cpus_1.iq.FU_type_0::SimdReduceCmp            0      0.00%     64.46% # Type of FU issued
system.switch_cpus_1.iq.FU_type_0::SimdFloatReduceAdd            0      0.00%     64.46% # Type of FU issued
system.switch_cpus_1.iq.FU_type_0::SimdFloatReduceCmp            0      0.00%     64.46% # Type of FU issued
system.switch_cpus_1.iq.FU_type_0::SimdAes            0      0.00%     64.46% # Type of FU issued
system.switch_cpus_1.iq.FU_type_0::SimdAesMix            0      0.00%     64.46% # Type of FU issued
system.switch_cpus_1.iq.FU_type_0::SimdSha1Hash            0      0.00%     64.46% # Type of FU issued
system.switch_cpus_1.iq.FU_type_0::SimdSha1Hash2            0      0.00%     64.46% # Type of FU issued
system.switch_cpus_1.iq.FU_type_0::SimdSha256Hash            0      0.00%     64.46% # Type of FU issued
system.switch_cpus_1.iq.FU_type_0::SimdSha256Hash2            0      0.00%     64.46% # Type of FU issued
system.switch_cpus_1.iq.FU_type_0::SimdShaSigma2            0      0.00%     64.46% # Type of FU issued
system.switch_cpus_1.iq.FU_type_0::SimdShaSigma3            0      0.00%     64.46% # Type of FU issued
system.switch_cpus_1.iq.FU_type_0::SimdPredAlu            0      0.00%     64.46% # Type of FU issued
system.switch_cpus_1.iq.FU_type_0::MemRead     63466647      3.93%     68.40% # Type of FU issued
system.switch_cpus_1.iq.FU_type_0::MemWrite     10721702      0.66%     69.06% # Type of FU issued
system.switch_cpus_1.iq.FU_type_0::FloatMemRead    396127829     24.54%     93.60% # Type of FU issued
system.switch_cpus_1.iq.FU_type_0::FloatMemWrite    103262025      6.40%    100.00% # Type of FU issued
system.switch_cpus_1.iq.FU_type_0::IprAccess            0      0.00%    100.00% # Type of FU issued
system.switch_cpus_1.iq.FU_type_0::InstPrefetch            0      0.00%    100.00% # Type of FU issued
system.switch_cpus_1.iq.FU_type_0::total   1614084022                       # Type of FU issued
system.switch_cpus_1.iq.fp_alu_accesses    1487465498                       # Number of floating point alu accesses
system.switch_cpus_1.iq.fp_inst_queue_reads   2961570568                       # Number of floating instruction queue reads
system.switch_cpus_1.iq.fp_inst_queue_wakeup_accesses   1453084435                       # Number of floating instruction queue wakeup accesses
system.switch_cpus_1.iq.fp_inst_queue_writes   1454404244                       # Number of floating instruction queue writes
system.switch_cpus_1.iq.fu_busy_cnt          18389886                       # FU busy when requested
system.switch_cpus_1.iq.fu_busy_rate         0.011393                       # FU busy rate (busy events/executed inst)
system.switch_cpus_1.iq.fu_full::No_OpClass            0      0.00%      0.00% # attempts to use FU when none available
system.switch_cpus_1.iq.fu_full::IntAlu           779      0.00%      0.00% # attempts to use FU when none available
system.switch_cpus_1.iq.fu_full::IntMult            0      0.00%      0.00% # attempts to use FU when none available
system.switch_cpus_1.iq.fu_full::IntDiv             0      0.00%      0.00% # attempts to use FU when none available
system.switch_cpus_1.iq.fu_full::FloatAdd            0      0.00%      0.00% # attempts to use FU when none available
system.switch_cpus_1.iq.fu_full::FloatCmp            0      0.00%      0.00% # attempts to use FU when none available
system.switch_cpus_1.iq.fu_full::FloatCvt            0      0.00%      0.00% # attempts to use FU when none available
system.switch_cpus_1.iq.fu_full::FloatMult            0      0.00%      0.00% # attempts to use FU when none available
system.switch_cpus_1.iq.fu_full::FloatMultAcc            0      0.00%      0.00% # attempts to use FU when none available
system.switch_cpus_1.iq.fu_full::FloatDiv            0      0.00%      0.00% # attempts to use FU when none available
system.switch_cpus_1.iq.fu_full::FloatMisc            0      0.00%      0.00% # attempts to use FU when none available
system.switch_cpus_1.iq.fu_full::FloatSqrt            0      0.00%      0.00% # attempts to use FU when none available
system.switch_cpus_1.iq.fu_full::SimdAdd            0      0.00%      0.00% # attempts to use FU when none available
system.switch_cpus_1.iq.fu_full::SimdAddAcc            0      0.00%      0.00% # attempts to use FU when none available
system.switch_cpus_1.iq.fu_full::SimdAlu       153520      0.83%      0.84% # attempts to use FU when none available
system.switch_cpus_1.iq.fu_full::SimdCmp            0      0.00%      0.84% # attempts to use FU when none available
system.switch_cpus_1.iq.fu_full::SimdCvt            0      0.00%      0.84% # attempts to use FU when none available
system.switch_cpus_1.iq.fu_full::SimdMisc            0      0.00%      0.84% # attempts to use FU when none available
system.switch_cpus_1.iq.fu_full::SimdMult            0      0.00%      0.84% # attempts to use FU when none available
system.switch_cpus_1.iq.fu_full::SimdMultAcc            0      0.00%      0.84% # attempts to use FU when none available
system.switch_cpus_1.iq.fu_full::SimdShift            0      0.00%      0.84% # attempts to use FU when none available
system.switch_cpus_1.iq.fu_full::SimdShiftAcc            0      0.00%      0.84% # attempts to use FU when none available
system.switch_cpus_1.iq.fu_full::SimdDiv            0      0.00%      0.84% # attempts to use FU when none available
system.switch_cpus_1.iq.fu_full::SimdSqrt            0      0.00%      0.84% # attempts to use FU when none available
system.switch_cpus_1.iq.fu_full::SimdFloatAdd       490447      2.67%      3.51% # attempts to use FU when none available
system.switch_cpus_1.iq.fu_full::SimdFloatAlu            0      0.00%      3.51% # attempts to use FU when none available
system.switch_cpus_1.iq.fu_full::SimdFloatCmp            0      0.00%      3.51% # attempts to use FU when none available
system.switch_cpus_1.iq.fu_full::SimdFloatCvt            0      0.00%      3.51% # attempts to use FU when none available
system.switch_cpus_1.iq.fu_full::SimdFloatDiv            0      0.00%      3.51% # attempts to use FU when none available
system.switch_cpus_1.iq.fu_full::SimdFloatMisc            0      0.00%      3.51% # attempts to use FU when none available
system.switch_cpus_1.iq.fu_full::SimdFloatMult       255105      1.39%      4.89% # attempts to use FU when none available
system.switch_cpus_1.iq.fu_full::SimdFloatMultAcc            0      0.00%      4.89% # attempts to use FU when none available
system.switch_cpus_1.iq.fu_full::SimdFloatSqrt            0      0.00%      4.89% # attempts to use FU when none available
system.switch_cpus_1.iq.fu_full::SimdReduceAdd            0      0.00%      4.89% # attempts to use FU when none available
system.switch_cpus_1.iq.fu_full::SimdReduceAlu            0      0.00%      4.89% # attempts to use FU when none available
system.switch_cpus_1.iq.fu_full::SimdReduceCmp            0      0.00%      4.89% # attempts to use FU when none available
system.switch_cpus_1.iq.fu_full::SimdFloatReduceAdd            0      0.00%      4.89% # attempts to use FU when none available
system.switch_cpus_1.iq.fu_full::SimdFloatReduceCmp            0      0.00%      4.89% # attempts to use FU when none available
system.switch_cpus_1.iq.fu_full::SimdAes            0      0.00%      4.89% # attempts to use FU when none available
system.switch_cpus_1.iq.fu_full::SimdAesMix            0      0.00%      4.89% # attempts to use FU when none available
system.switch_cpus_1.iq.fu_full::SimdSha1Hash            0      0.00%      4.89% # attempts to use FU when none available
system.switch_cpus_1.iq.fu_full::SimdSha1Hash2            0      0.00%      4.89% # attempts to use FU when none available
system.switch_cpus_1.iq.fu_full::SimdSha256Hash            0      0.00%      4.89% # attempts to use FU when none available
system.switch_cpus_1.iq.fu_full::SimdSha256Hash2            0      0.00%      4.89% # attempts to use FU when none available
system.switch_cpus_1.iq.fu_full::SimdShaSigma2            0      0.00%      4.89% # attempts to use FU when none available
system.switch_cpus_1.iq.fu_full::SimdShaSigma3            0      0.00%      4.89% # attempts to use FU when none available
system.switch_cpus_1.iq.fu_full::SimdPredAlu            0      0.00%      4.89% # attempts to use FU when none available
system.switch_cpus_1.iq.fu_full::MemRead      4479818     24.36%     29.25% # attempts to use FU when none available
system.switch_cpus_1.iq.fu_full::MemWrite       544898      2.96%     32.22% # attempts to use FU when none available
system.switch_cpus_1.iq.fu_full::FloatMemRead     12281864     66.79%     99.00% # attempts to use FU when none available
system.switch_cpus_1.iq.fu_full::FloatMemWrite       183455      1.00%    100.00% # attempts to use FU when none available
system.switch_cpus_1.iq.fu_full::IprAccess            0      0.00%    100.00% # attempts to use FU when none available
system.switch_cpus_1.iq.fu_full::InstPrefetch            0      0.00%    100.00% # attempts to use FU when none available
system.switch_cpus_1.iq.int_alu_accesses    145003113                       # Number of integer alu accesses
system.switch_cpus_1.iq.int_inst_queue_reads   1351854600                       # Number of integer instruction queue reads
system.switch_cpus_1.iq.int_inst_queue_wakeup_accesses    132671747                       # Number of integer instruction queue wakeup accesses
system.switch_cpus_1.iq.int_inst_queue_writes    133050499                       # Number of integer instruction queue writes
system.switch_cpus_1.iq.iqInstsAdded       1586094674                       # Number of instructions added to the IQ (excludes non-spec)
system.switch_cpus_1.iq.iqInstsIssued      1614084022                       # Number of instructions issued
system.switch_cpus_1.iq.iqSquashedInstsExamined      1346673                       # Number of squashed instructions iterated over during squash; mainly for profiling
system.switch_cpus_1.iq.iqSquashedInstsIssued         9429                       # Number of squashed instructions issued
system.switch_cpus_1.iq.iqSquashedOperandsExamined       997504                       # Number of squashed operands that are examined and possibly removed from graph
system.switch_cpus_1.iq.issued_per_cycle::samples   1066857811                       # Number of insts issued each cycle
system.switch_cpus_1.iq.issued_per_cycle::mean     1.512933                       # Number of insts issued each cycle
system.switch_cpus_1.iq.issued_per_cycle::stdev     2.339960                       # Number of insts issued each cycle
system.switch_cpus_1.iq.issued_per_cycle::underflows            0      0.00%      0.00% # Number of insts issued each cycle
system.switch_cpus_1.iq.issued_per_cycle::0    655155357     61.41%     61.41% # Number of insts issued each cycle
system.switch_cpus_1.iq.issued_per_cycle::1     69977647      6.56%     67.97% # Number of insts issued each cycle
system.switch_cpus_1.iq.issued_per_cycle::2     69018331      6.47%     74.44% # Number of insts issued each cycle
system.switch_cpus_1.iq.issued_per_cycle::3     50909496      4.77%     79.21% # Number of insts issued each cycle
system.switch_cpus_1.iq.issued_per_cycle::4     57214215      5.36%     84.57% # Number of insts issued each cycle
system.switch_cpus_1.iq.issued_per_cycle::5     50914163      4.77%     89.35% # Number of insts issued each cycle
system.switch_cpus_1.iq.issued_per_cycle::6     53852703      5.05%     94.39% # Number of insts issued each cycle
system.switch_cpus_1.iq.issued_per_cycle::7     31729860      2.97%     97.37% # Number of insts issued each cycle
system.switch_cpus_1.iq.issued_per_cycle::8     28086039      2.63%    100.00% # Number of insts issued each cycle
system.switch_cpus_1.iq.issued_per_cycle::overflows            0      0.00%    100.00% # Number of insts issued each cycle
system.switch_cpus_1.iq.issued_per_cycle::min_value            0                       # Number of insts issued each cycle
system.switch_cpus_1.iq.issued_per_cycle::max_value            8                       # Number of insts issued each cycle
system.switch_cpus_1.iq.issued_per_cycle::total   1066857811                       # Number of insts issued each cycle
system.switch_cpus_1.iq.rate                 1.512933                       # Inst issue rate
system.switch_cpus_1.iq.vec_alu_accesses            0                       # Number of vector alu accesses
system.switch_cpus_1.iq.vec_inst_queue_reads            0                       # Number of vector instruction queue reads
system.switch_cpus_1.iq.vec_inst_queue_wakeup_accesses            0                       # Number of vector instruction queue wakeup accesses
system.switch_cpus_1.iq.vec_inst_queue_writes            0                       # Number of vector instruction queue writes
system.switch_cpus_1.itb.rdAccesses                 0                       # TLB accesses on read requests
system.switch_cpus_1.itb.rdMisses                   0                       # TLB misses on read requests
system.switch_cpus_1.itb.wrAccesses         101543669                       # TLB accesses on write requests
system.switch_cpus_1.itb.wrMisses                   6                       # TLB misses on write requests
system.switch_cpus_1.memDep0.conflictingLoads      9730490                       # Number of conflicting loads.
system.switch_cpus_1.memDep0.conflictingStores      4112723                       # Number of conflicting stores.
system.switch_cpus_1.memDep0.insertedLoads    431420480                       # Number of loads inserted to the mem dependence unit.
system.switch_cpus_1.memDep0.insertedStores    114031654                       # Number of stores inserted to the mem dependence unit.
system.switch_cpus_1.misc_regfile_reads     600913021                       # number of misc regfile reads
system.switch_cpus_1.numCycles             1066857812                       # number of cpu cycles simulated
system.switch_cpus_1.numWorkItemsCompleted            0                       # number of work items this cpu completed
system.switch_cpus_1.numWorkItemsStarted            0                       # number of work items this cpu started
system.switch_cpus_1.rename.BlockCycles     275293448                       # Number of cycles rename is blocking
system.switch_cpus_1.rename.CommittedMaps   1508028937                       # Number of HB maps that are committed
system.switch_cpus_1.rename.IQFullEvents     32156417                       # Number of times rename has blocked due to IQ full
system.switch_cpus_1.rename.IdleCycles       96692523                       # Number of cycles rename is idle
system.switch_cpus_1.rename.LQFullEvents    217251897                       # Number of times rename has blocked due to LQ full
system.switch_cpus_1.rename.ROBFullEvents        81375                       # Number of times rename has blocked due to ROB full
system.switch_cpus_1.rename.RenameLookups   3915283079                       # Number of register rename lookups that rename has made
system.switch_cpus_1.rename.RenamedInsts   1586251122                       # Number of instructions processed by rename
system.switch_cpus_1.rename.RenamedOperands   1509351848                       # Number of destination operands rename has renamed
system.switch_cpus_1.rename.RunCycles       216851900                       # Number of cycles rename is running
system.switch_cpus_1.rename.SQFullEvents    232191897                       # Number of times rename has blocked due to SQ full
system.switch_cpus_1.rename.SquashCycles        30004                       # Number of cycles rename is squashing
system.switch_cpus_1.rename.UnblockCycles    477989888                       # Number of cycles rename is unblocking
system.switch_cpus_1.rename.UndoneMaps        1322860                       # Number of HB maps that are undone due to squashing
system.switch_cpus_1.rename.fp_rename_lookups   2192247770                       # Number of floating rename lookups
system.switch_cpus_1.rename.int_rename_lookups   1143802339                       # Number of integer rename lookups
system.switch_cpus_1.rename.serializeStallCycles            0                       # count of cycles rename stalled for serializing inst
system.switch_cpus_1.rename.serializingInsts            0                       # count of serializing insts renamed
system.switch_cpus_1.rename.skidInsts       161793752                       # count of insts added to the skid buffer
system.switch_cpus_1.rename.tempSerializingInsts            0                       # count of temporary serializing insts renamed
system.switch_cpus_1.rob.rob_reads         2537662451                       # The number of ROB reads
system.switch_cpus_1.rob.rob_writes        3172416058                       # The number of ROB writes
system.switch_cpus_1.timesIdled                     1                       # Number of times that the entire CPU went into an idle state and unscheduled itself
system.tol2bus.snoop_filter.hit_multi_requests            0                       # Number of requests hitting in the snoop filter with multiple (>1) holders of the requested data.
system.tol2bus.snoop_filter.hit_multi_snoops            0                       # Number of snoops hitting in the snoop filter with multiple (>1) holders of the requested data.
system.tol2bus.snoop_filter.hit_single_requests     14264080                       # Number of requests hitting in the snoop filter with a single holder of the requested data.
system.tol2bus.snoop_filter.hit_single_snoops        60813                       # Number of snoops hitting in the snoop filter with a single holder of the requested data.
system.tol2bus.snoop_filter.tot_requests     28492193                       # Total number of requests made to the snoop filter.
system.tol2bus.snoop_filter.tot_snoops          60813                       # Total number of snoops made to the snoop filter.
system.tol3bus.snoop_filter.hit_multi_requests            0                       # Number of requests hitting in the snoop filter with multiple (>1) holders of the requested data.
system.tol3bus.snoop_filter.hit_multi_snoops            0                       # Number of snoops hitting in the snoop filter with multiple (>1) holders of the requested data.
system.tol3bus.snoop_filter.hit_single_requests     13340455                       # Number of requests hitting in the snoop filter with a single holder of the requested data.
system.tol3bus.snoop_filter.hit_single_snoops       221186                       # Number of snoops hitting in the snoop filter with a single holder of the requested data.
system.tol3bus.snoop_filter.tot_requests     26680603                       # Total number of requests made to the snoop filter.
system.tol3bus.snoop_filter.tot_snoops         221186                       # Total number of snoops made to the snoop filter.
system.membus.trans_dist::ReadResp            3560799                       # Transaction distribution
system.membus.trans_dist::WritebackDirty      1474944                       # Transaction distribution
system.membus.trans_dist::CleanEvict          3545455                       # Transaction distribution
system.membus.trans_dist::ReadExReq           1459621                       # Transaction distribution
system.membus.trans_dist::ReadExResp          1459621                       # Transaction distribution
system.membus.trans_dist::ReadSharedReq       3560799                       # Transaction distribution
system.membus.pkt_count_system.l3.mem_side::system.mem_ctrls.port     15061239                       # Packet count per connected master and slave (bytes)
system.membus.pkt_count_system.l3.mem_side::total     15061239                       # Packet count per connected master and slave (bytes)
system.membus.pkt_count::total               15061239                       # Packet count per connected master and slave (bytes)
system.membus.pkt_size_system.l3.mem_side::system.mem_ctrls.port    415703296                       # Cumulative packet size per connected master and slave (bytes)
system.membus.pkt_size_system.l3.mem_side::total    415703296                       # Cumulative packet size per connected master and slave (bytes)
system.membus.pkt_size::total               415703296                       # Cumulative packet size per connected master and slave (bytes)
system.membus.snoops                                0                       # Total snoops (count)
system.membus.snoopTraffic                          0                       # Total snoop traffic (bytes)
system.membus.snoop_fanout::samples           5020420                       # Request fanout histogram
system.membus.snoop_fanout::mean                    0                       # Request fanout histogram
system.membus.snoop_fanout::stdev                   0                       # Request fanout histogram
system.membus.snoop_fanout::underflows              0      0.00%      0.00% # Request fanout histogram
system.membus.snoop_fanout::0                 5020420    100.00%    100.00% # Request fanout histogram
system.membus.snoop_fanout::1                       0      0.00%    100.00% # Request fanout histogram
system.membus.snoop_fanout::overflows               0      0.00%    100.00% # Request fanout histogram
system.membus.snoop_fanout::min_value               0                       # Request fanout histogram
system.membus.snoop_fanout::max_value               0                       # Request fanout histogram
system.membus.snoop_fanout::total             5020420                       # Request fanout histogram
system.membus.reqLayer2.occupancy         16930300500                       # Layer occupancy (ticks)
system.membus.reqLayer2.utilization               3.2                       # Layer utilization (%)
system.membus.respLayer1.occupancy        27490418000                       # Layer occupancy (ticks)
system.membus.respLayer1.utilization              5.2                       # Layer utilization (%)
system.membus.power_state.pwrStateResidencyTicks::UNDEFINED 1764357090500                       # Cumulative time (in ticks) in various power states
system.switch_cpus_1.dtb.walker.power_state.pwrStateResidencyTicks::UNDEFINED 1764357090500                       # Cumulative time (in ticks) in various power states
system.switch_cpus_1.itb.walker.power_state.pwrStateResidencyTicks::UNDEFINED 1764357090500                       # Cumulative time (in ticks) in various power states
system.switch_cpus_1.power_state.pwrStateResidencyTicks::OFF 1764357090500                       # Cumulative time (in ticks) in various power states
system.switch_cpus.dtb.walker.power_state.pwrStateResidencyTicks::UNDEFINED 1764357090500                       # Cumulative time (in ticks) in various power states
system.switch_cpus.itb.walker.power_state.pwrStateResidencyTicks::UNDEFINED 1764357090500                       # Cumulative time (in ticks) in various power states
system.switch_cpus.power_state.numTransitions            1                       # Number of power state transitions
system.switch_cpus.power_state.pwrStateResidencyTicks::OFF 1764357090500                       # Cumulative time (in ticks) in various power states
system.tol2bus.trans_dist::ReadResp          12063608                       # Transaction distribution
system.tol2bus.trans_dist::WritebackDirty      3669897                       # Transaction distribution
system.tol2bus.trans_dist::WritebackClean            7                       # Transaction distribution
system.tol2bus.trans_dist::CleanEvict        12248816                       # Transaction distribution
system.tol2bus.trans_dist::UpgradeReq           35967                       # Transaction distribution
system.tol2bus.trans_dist::UpgradeResp          35967                       # Transaction distribution
system.tol2bus.trans_dist::ReadExReq          2164505                       # Transaction distribution
system.tol2bus.trans_dist::ReadExResp         2164505                       # Transaction distribution
system.tol2bus.trans_dist::ReadCleanReq      12063608                       # Transaction distribution
system.tol2bus.pkt_count_system.cpu.icache.mem_side::system.l2.cpu_side           21                       # Packet count per connected master and slave (bytes)
system.tol2bus.pkt_count_system.cpu.dcache.mem_side::system.l2.cpu_side     42756252                       # Packet count per connected master and slave (bytes)
system.tol2bus.pkt_count::total              42756273                       # Packet count per connected master and slave (bytes)
system.tol2bus.pkt_size_system.cpu.icache.mem_side::system.l2.cpu_side          896                       # Cumulative packet size per connected master and slave (bytes)
system.tol2bus.pkt_size_system.cpu.dcache.mem_side::system.l2.cpu_side   1051429696                       # Cumulative packet size per connected master and slave (bytes)
system.tol2bus.pkt_size::total             1051430592                       # Cumulative packet size per connected master and slave (bytes)
system.tol2bus.snoops                         1690607                       # Total snoops (count)
system.tol2bus.snoopTraffic                  94042496                       # Total snoop traffic (bytes)
system.tol2bus.snoop_fanout::samples         15954687                       # Request fanout histogram
system.tol2bus.snoop_fanout::mean            0.003812                       # Request fanout histogram
system.tol2bus.snoop_fanout::stdev           0.061620                       # Request fanout histogram
system.tol2bus.snoop_fanout::underflows             0      0.00%      0.00% # Request fanout histogram
system.tol2bus.snoop_fanout::0               15893874     99.62%     99.62% # Request fanout histogram
system.tol2bus.snoop_fanout::1                  60813      0.38%    100.00% # Request fanout histogram
system.tol2bus.snoop_fanout::2                      0      0.00%    100.00% # Request fanout histogram
system.tol2bus.snoop_fanout::3                      0      0.00%    100.00% # Request fanout histogram
system.tol2bus.snoop_fanout::4                      0      0.00%    100.00% # Request fanout histogram
system.tol2bus.snoop_fanout::overflows              0      0.00%    100.00% # Request fanout histogram
system.tol2bus.snoop_fanout::min_value              0                       # Request fanout histogram
system.tol2bus.snoop_fanout::max_value              1                       # Request fanout histogram
system.tol2bus.snoop_fanout::total           15954687                       # Request fanout histogram
system.tol2bus.reqLayer0.occupancy        16446586500                       # Layer occupancy (ticks)
system.tol2bus.reqLayer0.utilization              3.1                       # Layer utilization (%)
system.tol2bus.respLayer1.occupancy       21360142500                       # Layer occupancy (ticks)
system.tol2bus.respLayer1.utilization             4.0                       # Layer utilization (%)
system.tol2bus.respLayer0.occupancy             10500                       # Layer occupancy (ticks)
system.tol2bus.respLayer0.utilization             0.0                       # Layer utilization (%)
system.tol2bus.power_state.pwrStateResidencyTicks::UNDEFINED 1764357090500                       # Cumulative time (in ticks) in various power states
system.voltage_domain.voltage                       1                       # Voltage in Volts
system.clk_domain.clock                          1000                       # Clock period in ticks
system.l2.demand_hits::.switch_cpus_1.data       887965                       # number of demand (read+write) hits
system.l2.demand_hits::total                   887965                       # number of demand (read+write) hits
system.l2.overall_hits::.switch_cpus_1.data       887965                       # number of overall hits
system.l2.overall_hits::total                  887965                       # number of overall hits
system.l2.demand_misses::.switch_cpus_1.inst            7                       # number of demand (read+write) misses
system.l2.demand_misses::.switch_cpus_1.data     13340141                       # number of demand (read+write) misses
system.l2.demand_misses::total               13340148                       # number of demand (read+write) misses
system.l2.overall_misses::.switch_cpus_1.inst            7                       # number of overall misses
system.l2.overall_misses::.switch_cpus_1.data     13340141                       # number of overall misses
system.l2.overall_misses::total              13340148                       # number of overall misses
system.l2.demand_miss_latency::.switch_cpus_1.inst       732500                       # number of demand (read+write) miss cycles
system.l2.demand_miss_latency::.switch_cpus_1.data 822879366000                       # number of demand (read+write) miss cycles
system.l2.demand_miss_latency::total     822880098500                       # number of demand (read+write) miss cycles
system.l2.overall_miss_latency::.switch_cpus_1.inst       732500                       # number of overall miss cycles
system.l2.overall_miss_latency::.switch_cpus_1.data 822879366000                       # number of overall miss cycles
system.l2.overall_miss_latency::total    822880098500                       # number of overall miss cycles
system.l2.demand_accesses::.switch_cpus_1.inst            7                       # number of demand (read+write) accesses
system.l2.demand_accesses::.switch_cpus_1.data     14228106                       # number of demand (read+write) accesses
system.l2.demand_accesses::total             14228113                       # number of demand (read+write) accesses
system.l2.overall_accesses::.switch_cpus_1.inst            7                       # number of overall (read+write) accesses
system.l2.overall_accesses::.switch_cpus_1.data     14228106                       # number of overall (read+write) accesses
system.l2.overall_accesses::total            14228113                       # number of overall (read+write) accesses
system.l2.demand_miss_rate::.switch_cpus_1.inst            1                       # miss rate for demand accesses
system.l2.demand_miss_rate::.switch_cpus_1.data     0.937591                       # miss rate for demand accesses
system.l2.demand_miss_rate::total            0.937591                       # miss rate for demand accesses
system.l2.overall_miss_rate::.switch_cpus_1.inst            1                       # miss rate for overall accesses
system.l2.overall_miss_rate::.switch_cpus_1.data     0.937591                       # miss rate for overall accesses
system.l2.overall_miss_rate::total           0.937591                       # miss rate for overall accesses
system.l2.demand_avg_miss_latency::.switch_cpus_1.inst 104642.857143                       # average overall miss latency
system.l2.demand_avg_miss_latency::.switch_cpus_1.data 61684.457908                       # average overall miss latency
system.l2.demand_avg_miss_latency::total 61684.480450                       # average overall miss latency
system.l2.overall_avg_miss_latency::.switch_cpus_1.inst 104642.857143                       # average overall miss latency
system.l2.overall_avg_miss_latency::.switch_cpus_1.data 61684.457908                       # average overall miss latency
system.l2.overall_avg_miss_latency::total 61684.480450                       # average overall miss latency
system.l2.blocked_cycles::no_mshrs                  0                       # number of cycles access was blocked
[...]
system.cpu.dcache.demand_miss_latency::.switch_cpus_1.data 945435868734                       # number of demand (read+write) miss cycles
system.cpu.dcache.demand_miss_latency::total 987529977734                       # number of demand (read+write) miss cycles
system.cpu.dcache.overall_miss_latency::.switch_cpus.data  42094109000                       # number of overall miss cycles
system.cpu.dcache.overall_miss_latency::.switch_cpus_1.data 945435868734                       # number of overall miss cycles
system.cpu.dcache.overall_miss_latency::total 987529977734                       # number of overall miss cycles
system.cpu.dcache.demand_accesses::.cpu.data    413942227                       # number of demand (read+write) accesses
system.cpu.dcache.demand_accesses::.switch_cpus.data     27203635                       # number of demand (read+write) accesses
system.cpu.dcache.demand_accesses::.switch_cpus_1.data    518049718                       # number of demand (read+write) accesses
system.cpu.dcache.demand_accesses::total    959195580                       # number of demand (read+write) accesses
system.cpu.dcache.overall_accesses::.cpu.data    413942227                       # number of overall (read+write) accesses
system.cpu.dcache.overall_accesses::.switch_cpus.data     27203635                       # number of overall (read+write) accesses
system.cpu.dcache.overall_accesses::.switch_cpus_1.data    518049718                       # number of overall (read+write) accesses
system.cpu.dcache.overall_accesses::total    959195580                       # number of overall (read+write) accesses
system.cpu.dcache.demand_miss_rate::.cpu.data     0.053787                       # miss rate for demand accesses
system.cpu.dcache.demand_miss_rate::.switch_cpus.data     0.028944                       # miss rate for demand accesses
system.cpu.dcache.demand_miss_rate::.switch_cpus_1.data     0.033134                       # miss rate for demand accesses
system.cpu.dcache.demand_miss_rate::total     0.041928                       # miss rate for demand accesses
system.cpu.dcache.overall_miss_rate::.cpu.data     0.053787                       # miss rate for overall accesses
system.cpu.dcache.overall_miss_rate::.switch_cpus.data     0.028944                       # miss rate for overall accesses
system.cpu.dcache.overall_miss_rate::.switch_cpus_1.data     0.033134                       # miss rate for overall accesses
system.cpu.dcache.overall_miss_rate::total     0.041928                       # miss rate for overall accesses
system.cpu.dcache.demand_avg_miss_latency::.switch_cpus.data 53461.322750                       # average overall miss latency
system.cpu.dcache.demand_avg_miss_latency::.switch_cpus_1.data 55079.701962                       # average overall miss latency
system.cpu.dcache.demand_avg_miss_latency::total 24555.126892                       # average overall miss latency
system.cpu.dcache.overall_avg_miss_latency::.switch_cpus.data 53461.322750                       # average overall miss latency
system.cpu.dcache.overall_avg_miss_latency::.switch_cpus_1.data 55079.701962                       # average overall miss latency
system.cpu.dcache.overall_avg_miss_latency::total 24555.126892                       # average overall miss latency
system.cpu.dcache.blocked_cycles::no_mshrs    212594064                       # number of cycles access was blocked
system.cpu.dcache.blocked_cycles::no_targets            0                       # number of cycles access was blocked
system.cpu.dcache.blocked::no_mshrs           4428162                       # number of cycles access was blocked
system.cpu.dcache.blocked::no_targets               0                       # number of cycles access was blocked
system.cpu.dcache.avg_blocked_cycles::no_mshrs    48.009550                       # average number of cycles each access was blocked
system.cpu.dcache.avg_blocked_cycles::no_targets          nan                       # average number of cycles each access was blocked
system.cpu.dcache.writebacks::.writebacks     17725650                       # number of writebacks
system.cpu.dcache.writebacks::total          17725650                       # number of writebacks
system.cpu.dcache.demand_mshr_hits::.switch_cpus_1.data      2900796                       # number of demand (read+write) MSHR hits
system.cpu.dcache.demand_mshr_hits::total      2900796                       # number of demand (read+write) MSHR hits
system.cpu.dcache.overall_mshr_hits::.switch_cpus_1.data      2900796                       # number of overall MSHR hits
system.cpu.dcache.overall_mshr_hits::total      2900796                       # number of overall MSHR hits
system.cpu.dcache.demand_mshr_misses::.switch_cpus.data       787375                       # number of demand (read+write) MSHR misses
system.cpu.dcache.demand_mshr_misses::.switch_cpus_1.data     14264073                       # number of demand (read+write) MSHR misses
system.cpu.dcache.demand_mshr_misses::total     15051448                       # number of demand (read+write) MSHR misses
system.cpu.dcache.overall_mshr_misses::.switch_cpus.data       787375                       # number of overall MSHR misses
system.cpu.dcache.overall_mshr_misses::.switch_cpus_1.data     14264073                       # number of overall MSHR misses
system.cpu.dcache.overall_mshr_misses::total     15051448                       # number of overall MSHR misses
system.cpu.dcache.demand_mshr_miss_latency::.switch_cpus.data  41306734000                       # number of demand (read+write) MSHR miss cycles
system.cpu.dcache.demand_mshr_miss_latency::.switch_cpus_1.data 858987739234                       # number of demand (read+write) MSHR miss cycles
system.cpu.dcache.demand_mshr_miss_latency::total 900294473234                       # number of demand (read+write) MSHR miss cycles
system.cpu.dcache.overall_mshr_miss_latency::.switch_cpus.data  41306734000                       # number of overall MSHR miss cycles
system.cpu.dcache.overall_mshr_miss_latency::.switch_cpus_1.data 858987739234                       # number of overall MSHR miss cycles
system.cpu.dcache.overall_mshr_miss_latency::total 900294473234                       # number of overall MSHR miss cycles
system.cpu.dcache.demand_mshr_miss_rate::.switch_cpus.data     0.028944                       # mshr miss rate for demand accesses
system.cpu.dcache.demand_mshr_miss_rate::.switch_cpus_1.data     0.027534                       # mshr miss rate for demand accesses
system.cpu.dcache.demand_mshr_miss_rate::total     0.015692                       # mshr miss rate for demand accesses
system.cpu.dcache.overall_mshr_miss_rate::.switch_cpus.data     0.028944                       # mshr miss rate for overall accesses
system.cpu.dcache.overall_mshr_miss_rate::.switch_cpus_1.data     0.027534                       # mshr miss rate for overall accesses
system.cpu.dcache.overall_mshr_miss_rate::total     0.015692                       # mshr miss rate for overall accesses
system.cpu.dcache.demand_avg_mshr_miss_latency::.switch_cpus.data 52461.322750                       # average overall mshr miss latency
system.cpu.dcache.demand_avg_mshr_miss_latency::.switch_cpus_1.data 60220.368981                       # average overall mshr miss latency
system.cpu.dcache.demand_avg_mshr_miss_latency::total 59814.475872                       # average overall mshr miss latency
system.cpu.dcache.overall_avg_mshr_miss_latency::.switch_cpus.data 52461.322750                       # average overall mshr miss latency
system.cpu.dcache.overall_avg_mshr_miss_latency::.switch_cpus_1.data 60220.368981                       # average overall mshr miss latency
system.cpu.dcache.overall_avg_mshr_miss_latency::total 59814.475872                       # average overall mshr miss latency
system.cpu.dcache.replacements               37269190                       # number of replacements
system.cpu.dcache.ReadReq_hits::.cpu.data    284826319                       # number of ReadReq hits
system.cpu.dcache.ReadReq_hits::.switch_cpus.data     20898497                       # number of ReadReq hits
system.cpu.dcache.ReadReq_hits::.switch_cpus_1.data    389267752                       # number of ReadReq hits
system.cpu.dcache.ReadReq_hits::total       694992568                       # number of ReadReq hits
system.cpu.dcache.ReadReq_misses::.cpu.data      6895778                       # number of ReadReq misses
system.cpu.dcache.ReadReq_misses::.switch_cpus.data       630980                       # number of ReadReq misses
system.cpu.dcache.ReadReq_misses::.switch_cpus_1.data     14964397                       # number of ReadReq misses
system.cpu.dcache.ReadReq_misses::total      22491155                       # number of ReadReq misses
system.cpu.dcache.ReadReq_miss_latency::.switch_cpus.data  33501061000                       # number of ReadReq miss cycles
system.cpu.dcache.ReadReq_miss_latency::.switch_cpus_1.data 770831729000                       # number of ReadReq miss cycles
system.cpu.dcache.ReadReq_miss_latency::total 804332790000                       # number of ReadReq miss cycles
system.cpu.dcache.ReadReq_accesses::.cpu.data    291722097                       # number of ReadReq accesses(hits+misses)
system.cpu.dcache.ReadReq_accesses::.switch_cpus.data     21529477                       # number of ReadReq accesses(hits+misses)
system.cpu.dcache.ReadReq_accesses::.switch_cpus_1.data    404232149                       # number of ReadReq accesses(hits+misses)
system.cpu.dcache.ReadReq_accesses::total    717483723                       # number of ReadReq accesses(hits+misses)
system.cpu.dcache.ReadReq_miss_rate::.cpu.data     0.023638                       # miss rate for ReadReq accesses
system.cpu.dcache.ReadReq_miss_rate::.switch_cpus.data     0.029308                       # miss rate for ReadReq accesses
system.cpu.dcache.ReadReq_miss_rate::.switch_cpus_1.data     0.037019                       # miss rate for ReadReq accesses
system.cpu.dcache.ReadReq_miss_rate::total     0.031347                       # miss rate for ReadReq accesses
system.cpu.dcache.ReadReq_avg_miss_latency::.switch_cpus.data 53093.697106                       # average ReadReq miss latency
system.cpu.dcache.ReadReq_avg_miss_latency::.switch_cpus_1.data 51511.045116                       # average ReadReq miss latency
system.cpu.dcache.ReadReq_avg_miss_latency::total 35762.182511                       # average ReadReq miss latency
system.cpu.dcache.ReadReq_mshr_hits::.switch_cpus_1.data      2900795                       # number of ReadReq MSHR hits
system.cpu.dcache.ReadReq_mshr_hits::total      2900795                       # number of ReadReq MSHR hits
system.cpu.dcache.ReadReq_mshr_misses::.switch_cpus.data       630980                       # number of ReadReq MSHR misses
system.cpu.dcache.ReadReq_mshr_misses::.switch_cpus_1.data     12063602                       # number of ReadReq MSHR misses
system.cpu.dcache.ReadReq_mshr_misses::total     12694582                       # number of ReadReq MSHR misses
system.cpu.dcache.ReadReq_mshr_miss_latency::.switch_cpus.data  32870081000                       # number of ReadReq MSHR miss cycles
system.cpu.dcache.ReadReq_mshr_miss_latency::.switch_cpus_1.data 686584084500                       # number of ReadReq MSHR miss cycles
system.cpu.dcache.ReadReq_mshr_miss_latency::total 719454165500                       # number of ReadReq MSHR miss cycles
system.cpu.dcache.ReadReq_mshr_miss_rate::.switch_cpus.data     0.029308                       # mshr miss rate for ReadReq accesses
system.cpu.dcache.ReadReq_mshr_miss_rate::.switch_cpus_1.data     0.029843                       # mshr miss rate for ReadReq accesses
system.cpu.dcache.ReadReq_mshr_miss_rate::total     0.017693                       # mshr miss rate for ReadReq accesses
system.cpu.dcache.ReadReq_avg_mshr_miss_latency::.switch_cpus.data 52093.697106                       # average ReadReq mshr miss latency
system.cpu.dcache.ReadReq_avg_mshr_miss_latency::.switch_cpus_1.data 56913.688341                       # average ReadReq mshr miss latency
system.cpu.dcache.ReadReq_avg_mshr_miss_latency::total 56674.112271                       # average ReadReq mshr miss latency
system.cpu.dcache.WriteReq_hits::.cpu.data    106851297                       # number of WriteReq hits
system.cpu.dcache.WriteReq_hits::.switch_cpus.data      5517763                       # number of WriteReq hits
system.cpu.dcache.WriteReq_hits::.switch_cpus_1.data    111617097                       # number of WriteReq hits
system.cpu.dcache.WriteReq_hits::total      223986157                       # number of WriteReq hits
system.cpu.dcache.WriteReq_misses::.cpu.data     15368833                       # number of WriteReq misses
system.cpu.dcache.WriteReq_misses::.switch_cpus.data       156395                       # number of WriteReq misses
system.cpu.dcache.WriteReq_misses::.switch_cpus_1.data      2200472                       # number of WriteReq misses
system.cpu.dcache.WriteReq_misses::total     17725700                       # number of WriteReq misses
system.cpu.dcache.WriteReq_miss_latency::.switch_cpus.data   8593048000                       # number of WriteReq miss cycles
system.cpu.dcache.WriteReq_miss_latency::.switch_cpus_1.data 174604139734                       # number of WriteReq miss cycles
system.cpu.dcache.WriteReq_miss_latency::total 183197187734                       # number of WriteReq miss cycles
system.cpu.dcache.WriteReq_accesses::.cpu.data    122220130                       # number of WriteReq accesses(hits+misses)
system.cpu.dcache.WriteReq_accesses::.switch_cpus.data      5674158                       # number of WriteReq accesses(hits+misses)
system.cpu.dcache.WriteReq_accesses::.switch_cpus_1.data    113817569                       # number of WriteReq accesses(hits+misses)
system.cpu.dcache.WriteReq_accesses::total    241711857                       # number of WriteReq accesses(hits+misses)
system.cpu.dcache.WriteReq_miss_rate::.cpu.data     0.125747                       # miss rate for WriteReq accesses
system.cpu.dcache.WriteReq_miss_rate::.switch_cpus.data     0.027563                       # miss rate for WriteReq accesses
system.cpu.dcache.WriteReq_miss_rate::.switch_cpus_1.data     0.019333                       # miss rate for WriteReq accesses
system.cpu.dcache.WriteReq_miss_rate::total     0.073334                       # miss rate for WriteReq accesses
system.cpu.dcache.WriteReq_avg_miss_latency::.switch_cpus.data 54944.518687                       # average WriteReq miss latency
system.cpu.dcache.WriteReq_avg_miss_latency::.switch_cpus_1.data 79348.494202                       # average WriteReq miss latency
system.cpu.dcache.WriteReq_avg_miss_latency::total 10335.117244                       # average WriteReq miss latency
system.cpu.dcache.WriteReq_mshr_hits::.switch_cpus_1.data            1                       # number of WriteReq MSHR hits
system.cpu.dcache.WriteReq_mshr_hits::total            1                       # number of WriteReq MSHR hits
system.cpu.dcache.WriteReq_mshr_misses::.switch_cpus.data       156395                       # number of WriteReq MSHR misses
system.cpu.dcache.WriteReq_mshr_misses::.switch_cpus_1.data      2200471                       # number of WriteReq MSHR misses
system.cpu.dcache.WriteReq_mshr_misses::total      2356866                       # number of WriteReq MSHR misses
system.cpu.dcache.WriteReq_mshr_miss_latency::.switch_cpus.data   8436653000                       # number of WriteReq MSHR miss cycles
system.cpu.dcache.WriteReq_mshr_miss_latency::.switch_cpus_1.data 172403654734                       # number of WriteReq MSHR miss cycles
system.cpu.dcache.WriteReq_mshr_miss_latency::total 180840307734                       # number of WriteReq MSHR miss cycles
system.cpu.dcache.WriteReq_mshr_miss_rate::.switch_cpus.data     0.027563                       # mshr miss rate for WriteReq accesses
system.cpu.dcache.WriteReq_mshr_miss_rate::.switch_cpus_1.data     0.019333                       # mshr miss rate for WriteReq accesses
system.cpu.dcache.WriteReq_mshr_miss_rate::total     0.009751                       # mshr miss rate for WriteReq accesses
system.cpu.dcache.WriteReq_avg_mshr_miss_latency::.switch_cpus.data 53944.518687                       # average WriteReq mshr miss latency
system.cpu.dcache.WriteReq_avg_mshr_miss_latency::.switch_cpus_1.data 78348.523900                       # average WriteReq mshr miss latency
system.cpu.dcache.WriteReq_avg_mshr_miss_latency::total 76729.142740                       # average WriteReq mshr miss latency
system.cpu.dcache.power_state.pwrStateResidencyTicks::UNDEFINED 1764357090500                       # Cumulative time (in ticks) in various power states
system.cpu.dcache.tags.tagsinuse           511.993904                       # Cycle average of tags in use
system.cpu.dcache.tags.total_refs           956306071                       # Total number of references to valid blocks.
system.cpu.dcache.tags.sampled_refs          37269702                       # Sample count of references to valid blocks.
system.cpu.dcache.tags.avg_refs             25.659075                       # Average number of references to valid blocks.
system.cpu.dcache.tags.warmup_cycle              1500                       # Cycle when the warmup percentage was hit.
system.cpu.dcache.tags.occ_blocks::.cpu.data   313.343405                       # Average occupied blocks per requestor
system.cpu.dcache.tags.occ_blocks::.switch_cpus.data    43.891914                       # Average occupied blocks per requestor
system.cpu.dcache.tags.occ_blocks::.switch_cpus_1.data   154.758584                       # Average occupied blocks per requestor
system.cpu.dcache.tags.occ_percent::.cpu.data     0.611999                       # Average percentage of cache occupancy
system.cpu.dcache.tags.occ_percent::.switch_cpus.data     0.085726                       # Average percentage of cache occupancy
system.cpu.dcache.tags.occ_percent::.switch_cpus_1.data     0.302263                       # Average percentage of cache occupancy
system.cpu.dcache.tags.occ_percent::total     0.999988                       # Average percentage of cache occupancy
system.cpu.dcache.tags.occ_task_id_blocks::1024          512                       # Occupied blocks per task id
system.cpu.dcache.tags.age_task_id_blocks_1024::0          125                       # Occupied blocks per task id
system.cpu.dcache.tags.age_task_id_blocks_1024::1          348                       # Occupied blocks per task id
system.cpu.dcache.tags.age_task_id_blocks_1024::2           32                       # Occupied blocks per task id
system.cpu.dcache.tags.age_task_id_blocks_1024::3            7                       # Occupied blocks per task id
system.cpu.dcache.tags.occ_task_id_percent::1024            1                       # Percentage of cache occupancy per task id
system.cpu.dcache.tags.tag_accesses        3874052022                       # Number of tag accesses
system.cpu.dcache.tags.data_accesses       3874052022                       # Number of data accesses
system.cpu.dcache.tags.power_state.pwrStateResidencyTicks::UNDEFINED 1764357090500                       # Cumulative time (in ticks) in various power states
system.cpu.power_state.numTransitions               2                       # Number of power state transitions
system.cpu.power_state.pwrStateResidencyTicks::ON 1078753440500                       # Cumulative time (in ticks) in various power states
system.cpu.power_state.pwrStateResidencyTicks::OFF 685603650000                       # Cumulative time (in ticks) in various power states

---------- End Simulation Statistics   ----------
