
---------- Begin Simulation Statistics ----------
final_tick                               1373981370000                       # Number of ticks from beginning of simulation (restored from checkpoints and never reset)
host_inst_rate                                 178612                       # Simulator instruction rate (inst/s)
host_mem_usage                                4574320                       # Number of bytes of host memory used
host_op_rate                                   271321                       # Simulator op (including micro ops) rate (op/s)
host_seconds                                 11477.40                       # Real time elapsed on the host
host_tick_rate                               27379785                       # Simulator tick rate (ticks/s)
sim_freq                                 1000000000000                       # Frequency of simulated ticks
sim_insts                                  2050000003                       # Number of instructions simulated
sim_ops                                    3114064159                       # Number of ops (including micro ops) simulated
sim_seconds                                  0.314249                       # Number of seconds simulated
sim_ticks                                314248726500                       # Number of ticks simulated
system.cpu.committedInsts                           0                       # Number of instructions committed
system.cpu.committedOps                             0                       # Number of ops (including micro ops) committed
system.cpu.dtb.rdAccesses                           0                       # TLB accesses on read requests
system.cpu.dtb.rdMisses                             0                       # TLB misses on read requests
system.cpu.dtb.wrAccesses                           0                       # TLB accesses on write requests
system.cpu.dtb.wrMisses                             0                       # TLB misses on write requests
system.cpu.idle_fraction                            0                       # Percentage of idle cycles
system.cpu.itb.rdAccesses                           0                       # TLB accesses on read requests
system.cpu.itb.rdMisses                             0                       # TLB misses on read requests
system.cpu.itb.wrAccesses                           0                       # TLB accesses on write requests
system.cpu.itb.wrMisses                             0                       # TLB misses on write requests
system.cpu.not_idle_fraction                        1                       # Percentage of non-idle cycles
system.cpu.numCycles                                0                       # number of cpu cycles simulated
system.cpu.numWorkItemsCompleted                    0                       # number of work items this cpu completed
system.cpu.numWorkItemsStarted                      0                       # number of work items this cpu started
system.cpu.num_busy_cycles                          0                       # Number of busy cycles
system.cpu.num_conditional_control_insts            0                       # number of instructions that are conditional controls
system.cpu.num_fp_alu_accesses                      0                       # Number of float alu accesses
system.cpu.num_fp_insts                             0                       # number of float instructions
system.cpu.num_fp_register_reads                    0                       # number of times the floating registers were read
system.cpu.num_fp_register_writes                   0                       # number of times the floating registers were written
system.cpu.num_func_calls                           0                       # number of times a function call or return occured
system.cpu.num_idle_cycles                          0                       # Number of idle cycles
system.cpu.num_int_alu_accesses                     0                       # Number of integer alu accesses
system.cpu.num_int_insts                            0                       # number of integer instructions
system.cpu.num_int_register_reads                   0                       # number of times the integer registers were read
system.cpu.num_int_register_writes                  0                       # number of times the integer registers were written
system.cpu.num_load_insts                           0                       # Number of load instructions
system.cpu.num_mem_refs                             0                       # number of memory refs
system.cpu.num_store_insts                          0                       # Number of store instructions
system.cpu.num_vec_alu_accesses                     0                       # Number of vector alu accesses
system.cpu.num_vec_insts                            0                       # number of vector instructions
system.cpu.num_vec_register_reads                   0                       # number of times the vector registers were read
system.cpu.num_vec_register_writes                  0                       # number of times the vector registers were written
system.cpu.op_class::No_OpClass                     0                       # Class of executed instruction
system.cpu.op_class::IntAlu                         0                       # Class of executed instruction
system.cpu.op_class::IntMult                        0                       # Class of executed instruction
system.cpu.op_class::IntDiv                         0                       # Class of executed instruction
system.cpu.op_class::FloatAdd                       0                       # Class of executed instruction
system.cpu.op_class::FloatCmp                       0                       # Class of executed instruction
system.cpu.op_class::FloatCvt                       0                       # Class of executed instruction
system.cpu.op_class::FloatMult                      0                       # Class of executed instruction
system.cpu.op_class::FloatMultAcc                   0                       # Class of executed instruction
system.cpu.op_class::FloatDiv                       0                       # Class of executed instruction
system.cpu.op_class::FloatMisc                      0                       # Class of executed instruction
system.cpu.op_class::FloatSqrt                      0                       # Class of executed instruction
system.cpu.op_class::SimdAdd                        0                       # Class of executed instruction
system.cpu.op_class::SimdAddAcc                     0                       # Class of executed instruction
system.cpu.op_class::SimdAlu                        0                       # Class of executed instruction
system.cpu.op_class::SimdCmp                        0                       # Class of executed instruction
system.cpu.op_class::SimdCvt                        0                       # Class of executed instruction
system.cpu.op_class::SimdMisc                       0                       # Class of executed instruction
system.cpu.op_class::SimdMult                       0                       # Class of executed instruction
system.cpu.op_class::SimdMultAcc                    0                       # Class of executed instruction
system.cpu.op_class::SimdShift                      0                       # Class of executed instruction
system.cpu.op_class::SimdShiftAcc                   0                       # Class of executed instruction
system.cpu.op_class::SimdDiv                        0                       # Class of executed instruction
system.cpu.op_class::SimdSqrt                       0                       # Class of executed instruction
system.cpu.op_class::SimdFloatAdd                   0                       # Class of executed instruction
system.cpu.op_class::SimdFloatAlu                   0                       # Class of executed instruction
system.cpu.op_class::SimdFloatCmp                   0                       # Class of executed instruction
system.cpu.op_class::SimdFloatCvt                   0                       # Class of executed instruction
system.cpu.op_class::SimdFloatDiv                   0                       # Class of executed instruction
system.cpu.op_class::SimdFloatMisc                  0                       # Class of executed instruction
system.cpu.op_class::SimdFloatMult                  0                       # Class of executed instruction
system.cpu.op_class::SimdFloatMultAcc               0                       # Class of executed instruction
system.cpu.op_class::SimdFloatSqrt                  0                       # Class of executed instruction
system.cpu.op_class::SimdReduceAdd                  0                       # Class of executed instruction
system.cpu.op_class::SimdReduceAlu                  0                       # Class of executed instruction
system.cpu.op_class::SimdReduceCmp                  0                       # Class of executed instruction
system.cpu.op_class::SimdFloatReduceAdd             0                       # Class of executed instruction
system.cpu.op_class::SimdFloatReduceCmp             0                       # Class of executed instruction
system.cpu.op_class::SimdAes                        0                       # Class of executed instruction
system.cpu.op_class::SimdAesMix                     0                       # Class of executed instruction
system.cpu.op_class::SimdSha1Hash                   0                       # Class of executed instruction
system.cpu.op_class::SimdSha1Hash2                  0                       # Class of executed instruction
system.cpu.op_class::SimdSha256Hash                 0                       # Class of executed instruction
system.cpu.op_class::SimdSha256Hash2                0                       # Class of executed instruction
system.cpu.op_class::SimdShaSigma2                  0                       # Class of executed instruction
system.cpu.op_class::SimdShaSigma3                  0                       # Class of executed instruction
system.cpu.op_class::SimdPredAlu                    0                       # Class of executed instruction
system.cpu.op_class::MemRead                        0                       # Class of executed instruction
system.cpu.op_class::MemWrite                       0                       # Class of executed instruction
system.cpu.op_class::FloatMemRead                   0                       # Class of executed instruction
system.cpu.op_class::FloatMemWrite                  0                       # Class of executed instruction
system.cpu.op_class::IprAccess                      0                       # Class of executed instruction
system.cpu.op_class::InstPrefetch                   0                       # Class of executed instruction
system.cpu.op_class::total                          0                       # Class of executed instruction
system.cpu.workload.numSyscalls                     0                       # Number of system calls
system.membus.snoop_filter.hit_multi_requests            0                       # Number of requests hitting in the snoop filter with multiple (>1) holders of the requested data.
system.membus.snoop_filter.hit_multi_snoops            0                       # Number of snoops hitting in the snoop filter with multiple (>1) holders of the requested data.
system.membus.snoop_filter.hit_single_requests           21                       # Number of requests hitting in the snoop filter with a single holder of the requested data.
system.membus.snoop_filter.hit_single_snoops            0                       # Number of snoops hitting in the snoop filter with a single holder of the requested data.
system.membus.snoop_filter.tot_requests           658                       # Total number of requests made to the snoop filter.
system.membus.snoop_filter.tot_snoops               0                       # Total number of snoops made to the snoop filter.
system.switch_cpus.committedInsts                   0                       # Number of instructions committed
system.switch_cpus.committedOps                     0                       # Number of ops (including micro ops) committed
system.switch_cpus.dtb.rdAccesses                   0                       # TLB accesses on read requests
system.switch_cpus.dtb.rdMisses                     0                       # TLB misses on read requests
system.switch_cpus.dtb.wrAccesses                   0                       # TLB accesses on write requests
system.switch_cpus.dtb.wrMisses                     0                       # TLB misses on write requests
system.switch_cpus.idle_fraction                    0                       # Percentage of idle cycles
system.switch_cpus.itb.rdAccesses                   0                       # TLB accesses on read requests
system.switch_cpus.itb.rdMisses                     0                       # TLB misses on read requests
system.switch_cpus.itb.wrAccesses                   0                       # TLB accesses on write requests
system.switch_cpus.itb.wrMisses                     0                       # TLB misses on write requests
system.switch_cpus.not_idle_fraction                1                       # Percentage of non-idle cycles
system.switch_cpus.numCycles                        0                       # number of cpu cycles simulated
system.switch_cpus.numWorkItemsCompleted            0                       # number of work items this cpu completed
system.switch_cpus.numWorkItemsStarted              0                       # number of work items this cpu started
system.switch_cpus.num_busy_cycles                  0                       # Number of busy cycles
system.switch_cpus.num_conditional_control_insts            0                       # number of instructions that are conditional controls
system.switch_cpus.num_fp_alu_accesses              0                       # Number of float alu accesses
system.switch_cpus.num_fp_insts                     0                       # number of float instructions
system.switch_cpus.num_fp_register_reads            0                       # number of times the floating registers were read
system.switch_cpus.num_fp_register_writes            0                       # number of times the floating registers were written
system.switch_cpus.num_func_calls                   0                       # number of times a function call or return occured
system.switch_cpus.num_idle_cycles                  0                       # Number of idle cycles
system.switch_cpus.num_int_alu_accesses             0                       # Number of integer alu accesses
system.switch_cpus.num_int_insts                    0                       # number of integer instructions
system.switch_cpus.num_int_register_reads            0                       # number of times the integer registers were read
system.switch_cpus.num_int_register_writes            0                       # number of times the integer registers were written
system.switch_cpus.num_load_insts                   0                       # Number of load instructions
system.switch_cpus.num_mem_refs                     0                       # number of memory refs
system.switch_cpus.num_store_insts                  0                       # Number of store instructions
system.switch_cpus.num_vec_alu_accesses             0                       # Number of vector alu accesses
system.switch_cpus.num_vec_insts                    0                       # number of vector instructions
system.switch_cpus.num_vec_register_reads            0                       # number of times the vector registers were read
system.switch_cpus.num_vec_register_writes            0                       # number of times the vector registers were written
system.switch_cpus.op_class::No_OpClass             0                       # Class of executed instruction
system.switch_cpus.op_class::IntAlu                 0                       # Class of executed instruction
system.switch_cpus.op_class::IntMult                0                       # Class of executed instruction
system.switch_cpus.op_class::IntDiv                 0                       # Class of executed instruction
system.switch_cpus.op_class::FloatAdd               0                       # Class of executed instruction
system.switch_cpus.op_class::FloatCmp               0                       # Class of executed instruction
system.switch_cpus.op_class::FloatCvt               0                       # Class of executed instruction
system.switch_cpus.op_class::FloatMult              0                       # Class of executed instruction
system.switch_cpus.op_class::FloatMultAcc            0                       # Class of executed instruction
system.switch_cpus.op_class::FloatDiv               0                       # Class of executed instruction
system.switch_cpus.op_class::FloatMisc              0                       # Class of executed instruction
system.switch_cpus.op_class::FloatSqrt              0                       # Class of executed instruction
system.switch_cpus.op_class::SimdAdd                0                       # Class of executed instruction
system.switch_cpus.op_class::SimdAddAcc             0                       # Class of executed instruction
system.switch_cpus.op_class::SimdAlu                0                       # Class of executed instruction
system.switch_cpus.op_class::SimdCmp                0                       # Class of executed instruction
system.switch_cpus.op_class::SimdCvt                0                       # Class of executed instruction
system.switch_cpus.op_class::SimdMisc               0                       # Class of executed instruction
system.switch_cpus.op_class::SimdMult               0                       # Class of executed instruction
system.switch_cpus.op_class::SimdMultAcc            0                       # Class of executed instruction
system.switch_cpus.op_class::SimdShift              0                       # Class of executed instruction
system.switch_cpus.op_class::SimdShiftAcc            0                       # Class of executed instruction
system.switch_cpus.op_class::SimdDiv                0                       # Class of executed instruction
system.switch_cpus.op_class::SimdSqrt               0                       # Class of executed instruction
system.switch_cpus.op_class::SimdFloatAdd            0                       # Class of executed instruction
system.switch_cpus.op_class::SimdFloatAlu            0                       # Class of executed instruction
system.switch_cpus.op_class::SimdFloatCmp            0                       # Class of executed instruction
system.switch_cpus.op_class::SimdFloatCvt            0                       # Class of executed instruction
system.switch_cpus.op_class::SimdFloatDiv            0                       # Class of executed instruction
system.switch_cpus.op_class::SimdFloatMisc            0                       # Class of executed instruction
system.switch_cpus.op_class::SimdFloatMult            0                       # Class of executed instruction
system.switch_cpus.op_class::SimdFloatMultAcc            0                       # Class of executed instruction
system.switch_cpus.op_class::SimdFloatSqrt            0                       # Class of executed instruction
system.switch_cpus.op_class::SimdReduceAdd            0                       # Class of executed instruction
system.switch_cpus.op_class::SimdReduceAlu            0                       # Class of executed instruction
system.switch_cpus.op_class::SimdReduceCmp            0                       # Class of executed instruction
system.switch_cpus.op_class::SimdFloatReduceAdd            0                       # Class of executed instruction
system.switch_cpus.op_class::SimdFloatReduceCmp            0                       # Class of executed instruction
system.switch_cpus.op_class::SimdAes                0                       # Class of executed instruction
system.switch_cpus.op_class::SimdAesMix             0                       # Class of executed instruction
system.switch_cpus.op_class::SimdSha1Hash            0                       # Class of executed instruction
system.switch_cpus.op_class::SimdSha1Hash2            0                       # Class of executed instruction
system.switch_cpus.op_class::SimdSha256Hash            0                       # Class of executed instruction
system.switch_cpus.op_class::SimdSha256Hash2            0                       # Class of executed instruction
system.switch_cpus.op_class::SimdShaSigma2            0                       # Class of executed instruction
system.switch_cpus.op_class::SimdShaSigma3            0                       # Class of executed instruction
system.switch_cpus.op_class::SimdPredAlu            0                       # Class of executed instruction
system.switch_cpus.op_class::MemRead                0                       # Class of executed instruction
system.switch_cpus.op_class::MemWrite               0                       # Class of executed instruction
system.switch_cpus.op_class::FloatMemRead            0                       # Class of executed instruction
system.switch_cpus.op_class::FloatMemWrite            0                       # Class of executed instruction
system.switch_cpus.op_class::IprAccess              0                       # Class of executed instruction
system.switch_cpus.op_class::InstPrefetch            0                       # Class of executed instruction
system.switch_cpus.op_class::total                  0                       # Class of executed instruction
system.switch_cpus_1.branchPred.BTBCorrect            0                       # Number of correct BTB predictions (this stat may not work properly.
system.switch_cpus_1.branchPred.BTBHitPct          nan                       # BTB Hit Percentage
system.switch_cpus_1.branchPred.BTBHits             0                       # Number of BTB hits
system.switch_cpus_1.branchPred.BTBLookups            0                       # Number of BTB lookups
system.switch_cpus_1.branchPred.RASInCorrect            1                       # Number of incorrect RAS predictions.
system.switch_cpus_1.branchPred.condIncorrect       273530                       # Number of conditional branches incorrect
system.switch_cpus_1.branchPred.condPredicted     49971175                       # Number of conditional branches predicted
system.switch_cpus_1.branchPred.indirectHits     32784133                       # Number of indirect target hits.
system.switch_cpus_1.branchPred.indirectLookups     32896025                       # Number of indirect predictor lookups.
system.switch_cpus_1.branchPred.indirectMisses       111892                       # Number of indirect misses.
system.switch_cpus_1.branchPred.lookups      50602863                       # Number of BP lookups
system.switch_cpus_1.branchPred.usedRAS        328368                       # Number of times the RAS was used to get a target.
system.switch_cpus_1.branchPredindirectMispredicted        24430                       # Number of mispredicted indirect branches.
system.switch_cpus_1.cc_regfile_reads      1610384294                       # number of cc regfile reads
system.switch_cpus_1.cc_regfile_writes      800336939                       # number of cc regfile writes
system.switch_cpus_1.commit.amos                    0                       # Number of atomic instructions committed
system.switch_cpus_1.commit.branchMispredicts       273539                       # The number of times a branch was mispredicted
system.switch_cpus_1.commit.branches         48374349                       # Number of branches committed
system.switch_cpus_1.commit.bw_lim_events    108871452                       # number cycles where commit BW limit reached
system.switch_cpus_1.commit.commitSquashedInsts     14461499                       # The number of squashed insts skipped by commit
system.switch_cpus_1.commit.committedInsts   1000000001                       # Number of instructions committed
system.switch_cpus_1.commit.committedOps   1515497738                       # Number of ops (including micro ops) committed
system.switch_cpus_1.commit.committed_per_cycle::samples    626442185                       # Number of insts commited each cycle
system.switch_cpus_1.commit.committed_per_cycle::mean     2.419214                       # Number of insts commited each cycle
system.switch_cpus_1.commit.committed_per_cycle::stdev     2.994559                       # Number of insts commited each cycle
system.switch_cpus_1.commit.committed_per_cycle::underflows            0      0.00%      0.00% # Number of insts commited each cycle
system.switch_cpus_1.commit.committed_per_cycle::0    229765524     36.68%     36.68% # Number of insts commited each cycle
system.switch_cpus_1.commit.committed_per_cycle::1    168350709     26.87%     63.55% # Number of insts commited each cycle
system.switch_cpus_1.commit.committed_per_cycle::2      9663227      1.54%     65.09% # Number of insts commited each cycle
system.switch_cpus_1.commit.committed_per_cycle::3     47110777      7.52%     72.61% # Number of insts commited each cycle
system.switch_cpus_1.commit.committed_per_cycle::4     33976727      5.42%     78.04% # Number of insts commited each cycle
system.switch_cpus_1.commit.committed_per_cycle::5      6046607      0.97%     79.00% # Number of insts commited each cycle
system.switch_cpus_1.commit.committed_per_cycle::6      9223449      1.47%     80.48% # Number of insts commited each cycle
system.switch_cpus_1.commit.committed_per_cycle::7     13433713      2.14%     82.62% # Number of insts commited each cycle
system.switch_cpus_1.commit.committed_per_cycle::8    108871452     17.38%    100.00% # Number of insts commited each cycle
system.switch_cpus_1.commit.committed_per_cycle::overflows            0      0.00%    100.00% # Number of insts commited each cycle
system.switch_cpus_1.commit.committed_per_cycle::min_value            0                       # Number of insts commited each cycle
system.switch_cpus_1.commit.committed_per_cycle::max_value            8                       # Number of insts commited each cycle
system.switch_cpus_1.commit.committed_per_cycle::total    626442185                       # Number of insts commited each cycle
system.switch_cpus_1.commit.fp_insts          3744134                       # Number of committed floating point instructions.
system.switch_cpus_1.commit.function_calls       255152                       # Number of function calls committed.
system.switch_cpus_1.commit.int_insts      1512631833                       # Number of committed integer instructions.
system.switch_cpus_1.commit.loads           429095764                       # Number of loads committed
system.switch_cpus_1.commit.membars                 0                       # Number of memory barriers committed
system.switch_cpus_1.commit.op_class_0::No_OpClass       303512      0.02%      0.02% # Class of committed instruction
system.switch_cpus_1.commit.op_class_0::IntAlu    929947176     61.36%     61.38% # Class of committed instruction
system.switch_cpus_1.commit.op_class_0::IntMult       405400      0.03%     61.41% # Class of committed instruction
system.switch_cpus_1.commit.op_class_0::IntDiv            0      0.00%     61.41% # Class of committed instruction
system.switch_cpus_1.commit.op_class_0::FloatAdd       154685      0.01%     61.42% # Class of committed instruction
system.switch_cpus_1.commit.op_class_0::FloatCmp            0      0.00%     61.42% # Class of committed instruction
system.switch_cpus_1.commit.op_class_0::FloatCvt            0      0.00%     61.42% # Class of committed instruction
system.switch_cpus_1.commit.op_class_0::FloatMult            0      0.00%     61.42% # Class of committed instruction
system.switch_cpus_1.commit.op_class_0::FloatMultAcc            0      0.00%     61.42% # Class of committed instruction
system.switch_cpus_1.commit.op_class_0::FloatDiv            0      0.00%     61.42% # Class of committed instruction
system.switch_cpus_1.commit.op_class_0::FloatMisc            0      0.00%     61.42% # Class of committed instruction
system.switch_cpus_1.commit.op_class_0::FloatSqrt            0      0.00%     61.42% # Class of committed instruction
system.switch_cpus_1.commit.op_class_0::SimdAdd            0      0.00%     61.42% # Class of committed instruction
system.switch_cpus_1.commit.op_class_0::SimdAddAcc            0      0.00%     61.42% # Class of committed instruction
system.switch_cpus_1.commit.op_class_0::SimdAlu       202118      0.01%     61.43% # Class of committed instruction
system.switch_cpus_1.commit.op_class_0::SimdCmp            0      0.00%     61.43% # Class of committed instruction
system.switch_cpus_1.commit.op_class_0::SimdCvt       235652      0.02%     61.45% # Class of committed instruction
system.switch_cpus_1.commit.op_class_0::SimdMisc       693021      0.05%     61.49% # Class of committed instruction
system.switch_cpus_1.commit.op_class_0::SimdMult            0      0.00%     61.49% # Class of committed instruction
system.switch_cpus_1.commit.op_class_0::SimdMultAcc            0      0.00%     61.49% # Class of committed instruction
system.switch_cpus_1.commit.op_class_0::SimdShift            0      0.00%     61.49% # Class of committed instruction
system.switch_cpus_1.commit.op_class_0::SimdShiftAcc            0      0.00%     61.49% # Class of committed instruction
system.switch_cpus_1.commit.op_class_0::SimdDiv            0      0.00%     61.49% # Class of committed instruction
system.switch_cpus_1.commit.op_class_0::SimdSqrt            0      0.00%     61.49% # Class of committed instruction
system.switch_cpus_1.commit.op_class_0::SimdFloatAdd       517187      0.03%     61.53% # Class of committed instruction
system.switch_cpus_1.commit.op_class_0::SimdFloatAlu            0      0.00%     61.53% # Class of committed instruction
system.switch_cpus_1.commit.op_class_0::SimdFloatCmp          158      0.00%     61.53% # Class of committed instruction
system.switch_cpus_1.commit.op_class_0::SimdFloatCvt       773139      0.05%     61.58% # Class of committed instruction
system.switch_cpus_1.commit.op_class_0::SimdFloatDiv       101508      0.01%     61.59% # Class of committed instruction
system.switch_cpus_1.commit.op_class_0::SimdFloatMisc            0      0.00%     61.59% # Class of committed instruction
system.switch_cpus_1.commit.op_class_0::SimdFloatMult        52518      0.00%     61.59% # Class of committed instruction
system.switch_cpus_1.commit.op_class_0::SimdFloatMultAcc            0      0.00%     61.59% # Class of committed instruction
system.switch_cpus_1.commit.op_class_0::SimdFloatSqrt            0      0.00%     61.59% # Class of committed instruction
system.switch_cpus_1.commit.op_class_0::SimdReduceAdd            0      0.00%     61.59% # Class of committed instruction
system.switch_cpus_1.commit.op_class_0::SimdReduceAlu            0      0.00%     61.59% # Class of committed instruction
system.switch_cpus_1.commit.op_class_0::SimdReduceCmp            0      0.00%     61.59% # Class of committed instruction
system.switch_cpus_1.commit.op_class_0::SimdFloatReduceAdd            0      0.00%     61.59% # Class of committed instruction
system.switch_cpus_1.commit.op_class_0::SimdFloatReduceCmp            0      0.00%     61.59% # Class of committed instruction
system.switch_cpus_1.commit.op_class_0::SimdAes            0      0.00%     61.59% # Class of committed instruction
system.switch_cpus_1.commit.op_class_0::SimdAesMix            0      0.00%     61.59% # Class of committed instruction
system.switch_cpus_1.commit.op_class_0::SimdSha1Hash            0      0.00%     61.59% # Class of committed instruction
system.switch_cpus_1.commit.op_class_0::SimdSha1Hash2            0      0.00%     61.59% # Class of committed instruction
system.switch_cpus_1.commit.op_class_0::SimdSha256Hash            0      0.00%     61.59% # Class of committed instruction
system.switch_cpus_1.commit.op_class_0::SimdSha256Hash2            0      0.00%     61.59% # Class of committed instruction
system.switch_cpus_1.commit.op_class_0::SimdShaSigma2            0      0.00%     61.59% # Class of committed instruction
system.switch_cpus_1.commit.op_class_0::SimdShaSigma3            0      0.00%     61.59% # Class of committed instruction
system.switch_cpus_1.commit.op_class_0::SimdPredAlu            0      0.00%     61.59% # Class of committed instruction
system.switch_cpus_1.commit.op_class_0::MemRead    428305920     28.26%     89.85% # Class of committed instruction
system.switch_cpus_1.commit.op_class_0::MemWrite    153013090     10.10%     99.95% # Class of committed instruction
system.switch_cpus_1.commit.op_class_0::FloatMemRead       789844      0.05%    100.00% # Class of committed instruction
system.switch_cpus_1.commit.op_class_0::FloatMemWrite         2810      0.00%    100.00% # Class of committed instruction
system.switch_cpus_1.commit.op_class_0::IprAccess            0      0.00%    100.00% # Class of committed instruction
system.switch_cpus_1.commit.op_class_0::InstPrefetch            0      0.00%    100.00% # Class of committed instruction
system.switch_cpus_1.commit.op_class_0::total   1515497738                       # Class of committed instruction
system.switch_cpus_1.commit.refs            582111664                       # Number of memory references committed
system.switch_cpus_1.commit.swp_count               0                       # Number of s/w prefetches committed
system.switch_cpus_1.commit.vec_insts               0                       # Number of committed Vector instructions.
system.switch_cpus_1.committedInsts        1000000001                       # Number of Instructions Simulated
system.switch_cpus_1.committedOps          1515497738                       # Number of Ops (including micro ops) Simulated
system.switch_cpus_1.cpi                     0.628497                       # CPI: Cycles Per Instruction
system.switch_cpus_1.cpi_total               0.628497                       # CPI: Total CPI of All Threads
system.switch_cpus_1.decode.BlockedCycles    387111580                       # Number of cycles decode is blocked
system.switch_cpus_1.decode.DecodedInsts   1534031075                       # Number of instructions handled by decode
system.switch_cpus_1.decode.IdleCycles       41411339                       # Number of cycles decode is idle
system.switch_cpus_1.decode.RunCycles       130456045                       # Number of cycles decode is running
system.switch_cpus_1.decode.SquashCycles       286835                       # Number of cycles decode is squashing
system.switch_cpus_1.decode.UnblockCycles     69231260                       # Number of cycles decode is unblocking
system.switch_cpus_1.dtb.rdAccesses         431204225                       # TLB accesses on read requests
system.switch_cpus_1.dtb.rdMisses                5296                       # TLB misses on read requests
system.switch_cpus_1.dtb.wrAccesses         153268435                       # TLB accesses on write requests
system.switch_cpus_1.dtb.wrMisses               45714                       # TLB misses on write requests
system.switch_cpus_1.fetch.Branches          50602863                       # Number of branches that fetch encountered
system.switch_cpus_1.fetch.CacheLines        78183914                       # Number of cache lines fetched
system.switch_cpus_1.fetch.Cycles           549896716                       # Number of cycles fetch has run and was not squashing or blocked
system.switch_cpus_1.fetch.IcacheSquashes        37127                       # Number of outstanding Icache misses that were squashed
system.switch_cpus_1.fetch.Insts           1014216609                       # Number of instructions fetch has processed
system.switch_cpus_1.fetch.MiscStallCycles            9                       # Number of cycles fetch has spent waiting on interrupts, or bad addresses, or out of MSHRs
system.switch_cpus_1.fetch.PendingTrapStallCycles           56                       # Number of stall cycles due to pending traps
system.switch_cpus_1.fetch.SquashCycles        573670                       # Number of cycles fetch has spent squashing
system.switch_cpus_1.fetch.branchRate        0.080514                       # Number of branch fetches per cycle
system.switch_cpus_1.fetch.icacheStallCycles     78313454                       # Number of cycles fetch is stalled on an Icache miss
system.switch_cpus_1.fetch.predictedBranches     33112501                       # Number of branches that fetch has predicted taken
system.switch_cpus_1.fetch.rate              1.613716                       # Number of inst fetches per cycle
system.switch_cpus_1.fetch.rateDist::samples    628497070                       # Number of instructions fetched each cycle (Total)
system.switch_cpus_1.fetch.rateDist::mean     2.451202                       # Number of instructions fetched each cycle (Total)
system.switch_cpus_1.fetch.rateDist::stdev     3.381956                       # Number of instructions fetched each cycle (Total)
system.switch_cpus_1.fetch.rateDist::underflows            0      0.00%      0.00% # Number of instructions fetched each cycle (Total)
system.switch_cpus_1.fetch.rateDist::0      379276460     60.35%     60.35% # Number of instructions fetched each cycle (Total)
system.switch_cpus_1.fetch.rateDist::1       16980188      2.70%     63.05% # Number of instructions fetched each cycle (Total)
system.switch_cpus_1.fetch.rateDist::2        9435355      1.50%     64.55% # Number of instructions fetched each cycle (Total)
system.switch_cpus_1.fetch.rateDist::3       19682483      3.13%     67.68% # Number of instructions fetched each cycle (Total)
system.switch_cpus_1.fetch.rateDist::4       31694777      5.04%     72.72% # Number of instructions fetched each cycle (Total)
system.switch_cpus_1.fetch.rateDist::5        4715693      0.75%     73.47% # Number of instructions fetched each cycle (Total)
system.switch_cpus_1.fetch.rateDist::6        7008047      1.12%     74.59% # Number of instructions fetched each cycle (Total)
system.switch_cpus_1.fetch.rateDist::7       24363244      3.88%     78.47% # Number of instructions fetched each cycle (Total)
system.switch_cpus_1.fetch.rateDist::8      135340823     21.53%    100.00% # Number of instructions fetched each cycle (Total)
system.switch_cpus_1.fetch.rateDist::overflows            0      0.00%    100.00% # Number of instructions fetched each cycle (Total)
system.switch_cpus_1.fetch.rateDist::min_value            0                       # Number of instructions fetched each cycle (Total)
system.switch_cpus_1.fetch.rateDist::max_value            8                       # Number of instructions fetched each cycle (Total)
system.switch_cpus_1.fetch.rateDist::total    628497070                       # Number of instructions fetched each cycle (Total)
system.switch_cpus_1.fp_regfile_reads         7567547                       # number of floating regfile reads
system.switch_cpus_1.fp_regfile_writes        3794750                       # number of floating regfile writes
system.switch_cpus_1.idleCycles                   383                       # Total number of cycles that the CPU has spent unscheduled due to idling
system.switch_cpus_1.iew.branchMispredicts       350849                       # Number of branch mispredicts detected at execute
system.switch_cpus_1.iew.exec_branches       48788046                       # Number of branches executed
system.switch_cpus_1.iew.exec_nop                   0                       # number of nop insts executed
system.switch_cpus_1.iew.exec_rate           2.425461                       # Inst execution rate
system.switch_cpus_1.iew.exec_refs          584638777                       # number of memory reference insts executed
system.switch_cpus_1.iew.exec_stores        153268380                       # Number of stores executed
system.switch_cpus_1.iew.exec_swp                   0                       # number of swp insts executed
system.switch_cpus_1.iew.iewBlockCycles       3387030                       # Number of cycles IEW is blocking
system.switch_cpus_1.iew.iewDispLoadInsts    431697570                       # Number of dispatched load instructions
system.switch_cpus_1.iew.iewDispNonSpecInsts         1650                       # Number of dispatched non-speculative instructions
system.switch_cpus_1.iew.iewDispSquashedInsts         2977                       # Number of squashed instructions skipped by dispatch
system.switch_cpus_1.iew.iewDispStoreInsts    153576358                       # Number of dispatched store instructions
system.switch_cpus_1.iew.iewDispatchedInsts   1529958284                       # Number of instructions dispatched to IQ
system.switch_cpus_1.iew.iewExecLoadInsts    431370397                       # Number of load instructions executed
system.switch_cpus_1.iew.iewExecSquashedInsts       549386                       # Number of squashed instructions skipped in execute
system.switch_cpus_1.iew.iewExecutedInsts   1524396367                       # Number of executed instructions
system.switch_cpus_1.iew.iewIQFullEvents        85944                       # Number of times the IQ has become full, causing a stall
system.switch_cpus_1.iew.iewIdleCycles              0                       # Number of cycles IEW is idle
system.switch_cpus_1.iew.iewLSQFullEvents     50134714                       # Number of times the LSQ has become full, causing a stall
system.switch_cpus_1.iew.iewSquashCycles       286835                       # Number of cycles IEW is squashing
system.switch_cpus_1.iew.iewUnblockCycles     50311941                       # Number of cycles IEW is unblocking
system.switch_cpus_1.iew.lsq.thread0.blockedLoads            0                       # Number of blocked loads due to partial load-store forwarding
system.switch_cpus_1.iew.lsq.thread0.cacheBlocked        44319                       # Number of times an access to memory failed due to the cache being blocked
system.switch_cpus_1.iew.lsq.thread0.forwLoads     28055658                       # Number of loads that had data forwarded from stores
system.switch_cpus_1.iew.lsq.thread0.ignoredResponses         6201                       # Number of memory responses ignored because the instruction is squashed
system.switch_cpus_1.iew.lsq.thread0.invAddrLoads            0                       # Number of loads ignored due to an invalid address
system.switch_cpus_1.iew.lsq.thread0.invAddrSwpfs            0                       # Number of software prefetches ignored due to an invalid address
system.switch_cpus_1.iew.lsq.thread0.memOrderViolation        14602                       # Number of memory ordering violations
system.switch_cpus_1.iew.lsq.thread0.rescheduledLoads           69                       # Number of loads that were rescheduled
system.switch_cpus_1.iew.lsq.thread0.squashedLoads      2601801                       # Number of loads squashed
system.switch_cpus_1.iew.lsq.thread0.squashedStores       560454                       # Number of stores squashed
system.switch_cpus_1.iew.memOrderViolationEvents        14602                       # Number of memory order violations
system.switch_cpus_1.iew.predictedNotTakenIncorrect       223548                       # Number of branches that were predicted not taken incorrectly
system.switch_cpus_1.iew.predictedTakenIncorrect       127301                       # Number of branches that were predicted taken incorrectly
system.switch_cpus_1.iew.wb_consumers      2560835439                       # num instructions consuming a value
system.switch_cpus_1.iew.wb_count          1523652398                       # cumulative count of insts written-back
system.switch_cpus_1.iew.wb_fanout           0.497854                       # average fanout of values written-back
system.switch_cpus_1.iew.wb_producers      1274921657                       # num instructions producing a value
system.switch_cpus_1.iew.wb_rate             2.424278                       # insts written-back per cycle
system.switch_cpus_1.iew.wb_sent           1523840338                       # cumulative count of insts sent to commit
system.switch_cpus_1.int_regfile_reads     3095961779                       # number of integer regfile reads
system.switch_cpus_1.int_regfile_writes    1317545612                       # number of integer regfile writes
system.switch_cpus_1.ipc                     1.591096                       # IPC: Instructions Per Cycle
system.switch_cpus_1.ipc_total               1.591096                       # IPC: Total IPC of All Threads
system.switch_cpus_1.iq.FU_type_0::No_OpClass       360142      0.02%      0.02% # Type of FU issued
system.switch_cpus_1.iq.FU_type_0::IntAlu    935911928     61.37%     61.40% # Type of FU issued
system.switch_cpus_1.iq.FU_type_0::IntMult       413624      0.03%     61.42% # Type of FU issued
system.switch_cpus_1.iq.FU_type_0::IntDiv            0      0.00%     61.42% # Type of FU issued
system.switch_cpus_1.iq.FU_type_0::FloatAdd       200331      0.01%     61.44% # Type of FU issued
system.switch_cpus_1.iq.FU_type_0::FloatCmp            0      0.00%     61.44% # Type of FU issued
system.switch_cpus_1.iq.FU_type_0::FloatCvt          407      0.00%     61.44% # Type of FU issued
system.switch_cpus_1.iq.FU_type_0::FloatMult            0      0.00%     61.44% # Type of FU issued
system.switch_cpus_1.iq.FU_type_0::FloatMultAcc            0      0.00%     61.44% # Type of FU issued
system.switch_cpus_1.iq.FU_type_0::FloatDiv            0      0.00%     61.44% # Type of FU issued
system.switch_cpus_1.iq.FU_type_0::FloatMisc            0      0.00%     61.44% # Type of FU issued
system.switch_cpus_1.iq.FU_type_0::FloatSqrt            0      0.00%     61.44% # Type of FU issued
system.switch_cpus_1.iq.FU_type_0::SimdAdd            0      0.00%     61.44% # Type of FU issued
system.switch_cpus_1.iq.FU_type_0::SimdAddAcc            0      0.00%     61.44% # Type of FU issued
system.switch_cpus_1.iq.FU_type_0::SimdAlu       265981      0.02%     61.45% # Type of FU issued
system.switch_cpus_1.iq.FU_type_0::SimdCmp            0      0.00%     61.45% # Type of FU issued
system.switch_cpus_1.iq.FU_type_0::SimdCvt       246719      0.02%     61.47% # Type of FU issued
system.switch_cpus_1.iq.FU_type_0::SimdMisc       732140      0.05%     61.52% # Type of FU issued
system.switch_cpus_1.iq.FU_type_0::SimdMult            0      0.00%     61.52% # Type of FU issued
system.switch_cpus_1.iq.FU_type_0::SimdMultAcc            0      0.00%     61.52% # Type of FU issued
system.switch_cpus_1.iq.FU_type_0::SimdShift            0      0.00%     61.52% # Type of FU issued
system.switch_cpus_1.iq.FU_type_0::SimdShiftAcc            0      0.00%     61.52% # Type of FU issued
system.switch_cpus_1.iq.FU_type_0::SimdDiv            0      0.00%     61.52% # Type of FU issued
system.switch_cpus_1.iq.FU_type_0::SimdSqrt            0      0.00%     61.52% # Type of FU issued
system.switch_cpus_1.iq.FU_type_0::SimdFloatAdd       797934      0.05%     61.57% # Type of FU issued
system.switch_cpus_1.iq.FU_type_0::SimdFloatAlu            0      0.00%     61.57% # Type of FU issued
system.switch_cpus_1.iq.FU_type_0::SimdFloatCmp          171      0.00%     61.57% # Type of FU issued
system.switch_cpus_1.iq.FU_type_0::SimdFloatCvt       909576      0.06%     61.63% # Type of FU issued
system.switch_cpus_1.iq.FU_type_0::SimdFloatDiv       131851      0.01%     61.64% # Type of FU issued
system.switch_cpus_1.iq.FU_type_0::SimdFloatMisc            0      0.00%     61.64% # Type of FU issued
system.switch_cpus_1.iq.FU_type_0::SimdFloatMult        62207      0.00%     61.64% # Type of FU issued
system.switch_cpus_1.iq.FU_type_0::SimdFloatMultAcc            0      0.00%     61.64% # Type of FU issued
system.switch_cpus_1.iq.FU_type_0::SimdFloatSqrt            0      0.00%     61.64% # Type of FU issued
system.switch_cpus_1.iq.FU_type_0::SimdReduceAdd            0      0.00%     61.64% # Type of FU issued
system.switch_cpus_1.iq.FU_type_0::SimdReduceAlu            0      0.00%     61.64% # Type of FU issued
system.switch_cpus_1.iq.FU_type_0::SimdReduceCmp            0      0.00%     61.64% # Type of FU issued
system.switch_cpus_1.iq.FU_type_0::SimdFloatReduceAdd            0      0.00%     61.64% # Type of FU issued
system.switch_cpus_1.iq.FU_type_0::SimdFloatReduceCmp            0      0.00%     61.64% # Type of FU issued
system.switch_cpus_1.iq.FU_type_0::SimdAes            0      0.00%     61.64% # Type of FU issued
system.switch_cpus_1.iq.FU_type_0::SimdAesMix            0      0.00%     61.64% # Type of FU issued
system.switch_cpus_1.iq.FU_type_0::SimdSha1Hash            0      0.00%     61.64% # Type of FU issued
system.switch_cpus_1.iq.FU_type_0::SimdSha1Hash2            0      0.00%     61.64% # Type of FU issued
system.switch_cpus_1.iq.FU_type_0::SimdSha256Hash            0      0.00%     61.64% # Type of FU issued
system.switch_cpus_1.iq.FU_type_0::SimdSha256Hash2            0      0.00%     61.64% # Type of FU issued
system.switch_cpus_1.iq.FU_type_0::SimdShaSigma2            0      0.00%     61.64% # Type of FU issued
system.switch_cpus_1.iq.FU_type_0::SimdShaSigma3            0      0.00%     61.64% # Type of FU issued
system.switch_cpus_1.iq.FU_type_0::SimdPredAlu            0      0.00%     61.64% # Type of FU issued
system.switch_cpus_1.iq.FU_type_0::MemRead    430420027     28.23%     89.87% # Type of FU issued
system.switch_cpus_1.iq.FU_type_0::MemWrite    153276810     10.05%     99.92% # Type of FU issued
system.switch_cpus_1.iq.FU_type_0::FloatMemRead      1211362      0.08%    100.00% # Type of FU issued
system.switch_cpus_1.iq.FU_type_0::FloatMemWrite         4546      0.00%    100.00% # Type of FU issued
system.switch_cpus_1.iq.FU_type_0::IprAccess            0      0.00%    100.00% # Type of FU issued
system.switch_cpus_1.iq.FU_type_0::InstPrefetch            0      0.00%    100.00% # Type of FU issued
system.switch_cpus_1.iq.FU_type_0::total   1524945756                       # Type of FU issued
system.switch_cpus_1.iq.fp_alu_accesses       4832135                       # Number of floating point alu accesses
system.switch_cpus_1.iq.fp_inst_queue_reads      9626567                       # Number of floating instruction queue reads
system.switch_cpus_1.iq.fp_inst_queue_wakeup_accesses      4684431                       # Number of floating instruction queue wakeup accesses
system.switch_cpus_1.iq.fp_inst_queue_writes      7134552                       # Number of floating instruction queue writes
system.switch_cpus_1.iq.fu_busy_cnt           7864069                       # FU busy when requested
system.switch_cpus_1.iq.fu_busy_rate         0.005157                       # FU busy rate (busy events/executed inst)
system.switch_cpus_1.iq.fu_full::No_OpClass            0      0.00%      0.00% # attempts to use FU when none available
system.switch_cpus_1.iq.fu_full::IntAlu        825099     10.49%     10.49% # attempts to use FU when none available
system.switch_cpus_1.iq.fu_full::IntMult            0      0.00%     10.49% # attempts to use FU when none available
system.switch_cpus_1.iq.fu_full::IntDiv             0      0.00%     10.49% # attempts to use FU when none available
system.switch_cpus_1.iq.fu_full::FloatAdd            0      0.00%     10.49% # attempts to use FU when none available
system.switch_cpus_1.iq.fu_full::FloatCmp            0      0.00%     10.49% # attempts to use FU when none available
system.switch_cpus_1.iq.fu_full::FloatCvt           16      0.00%     10.49% # attempts to use FU when none available
system.switch_cpus_1.iq.fu_full::FloatMult            0      0.00%     10.49% # attempts to use FU when none available
system.switch_cpus_1.iq.fu_full::FloatMultAcc            0      0.00%     10.49% # attempts to use FU when none available
system.switch_cpus_1.iq.fu_full::FloatDiv            0      0.00%     10.49% # attempts to use FU when none available
system.switch_cpus_1.iq.fu_full::FloatMisc            0      0.00%     10.49% # attempts to use FU when none available
system.switch_cpus_1.iq.fu_full::FloatSqrt            0      0.00%     10.49% # attempts to use FU when none available
system.switch_cpus_1.iq.fu_full::SimdAdd            0      0.00%     10.49% # attempts to use FU when none available
system.switch_cpus_1.iq.fu_full::SimdAddAcc            0      0.00%     10.49% # attempts to use FU when none available
system.switch_cpus_1.iq.fu_full::SimdAlu            0      0.00%     10.49% # attempts to use FU when none available
system.switch_cpus_1.iq.fu_full::SimdCmp            0      0.00%     10.49% # attempts to use FU when none available
system.switch_cpus_1.iq.fu_full::SimdCvt            0      0.00%     10.49% # attempts to use FU when none available
system.switch_cpus_1.iq.fu_full::SimdMisc            2      0.00%     10.49% # attempts to use FU when none available
system.switch_cpus_1.iq.fu_full::SimdMult            0      0.00%     10.49% # attempts to use FU when none available
system.switch_cpus_1.iq.fu_full::SimdMultAcc            0      0.00%     10.49% # attempts to use FU when none available
system.switch_cpus_1.iq.fu_full::SimdShift            0      0.00%     10.49% # attempts to use FU when none available
system.switch_cpus_1.iq.fu_full::SimdShiftAcc            0      0.00%     10.49% # attempts to use FU when none available
system.switch_cpus_1.iq.fu_full::SimdDiv            0      0.00%     10.49% # attempts to use FU when none available
system.switch_cpus_1.iq.fu_full::SimdSqrt            0      0.00%     10.49% # attempts to use FU when none available
system.switch_cpus_1.iq.fu_full::SimdFloatAdd        11926      0.15%     10.64% # attempts to use FU when none available
system.switch_cpus_1.iq.fu_full::SimdFloatAlu            0      0.00%     10.64% # attempts to use FU when none available
system.switch_cpus_1.iq.fu_full::SimdFloatCmp            0      0.00%     10.64% # attempts to use FU when none available
system.switch_cpus_1.iq.fu_full::SimdFloatCvt        26212      0.33%     10.98% # attempts to use FU when none available
system.switch_cpus_1.iq.fu_full::SimdFloatDiv            0      0.00%     10.98% # attempts to use FU when none available
system.switch_cpus_1.iq.fu_full::SimdFloatMisc            0      0.00%     10.98% # attempts to use FU when none available
system.switch_cpus_1.iq.fu_full::SimdFloatMult            0      0.00%     10.98% # attempts to use FU when none available
system.switch_cpus_1.iq.fu_full::SimdFloatMultAcc            0      0.00%     10.98% # attempts to use FU when none available
system.switch_cpus_1.iq.fu_full::SimdFloatSqrt            0      0.00%     10.98% # attempts to use FU when none available
system.switch_cpus_1.iq.fu_full::SimdReduceAdd            0      0.00%     10.98% # attempts to use FU when none available
system.switch_cpus_1.iq.fu_full::SimdReduceAlu            0      0.00%     10.98% # attempts to use FU when none available
system.switch_cpus_1.iq.fu_full::SimdReduceCmp            0      0.00%     10.98% # attempts to use FU when none available
system.switch_cpus_1.iq.fu_full::SimdFloatReduceAdd            0      0.00%     10.98% # attempts to use FU when none available
system.switch_cpus_1.iq.fu_full::SimdFloatReduceCmp            0      0.00%     10.98% # attempts to use FU when none available
system.switch_cpus_1.iq.fu_full::SimdAes            0      0.00%     10.98% # attempts to use FU when none available
system.switch_cpus_1.iq.fu_full::SimdAesMix            0      0.00%     10.98% # attempts to use FU when none available
system.switch_cpus_1.iq.fu_full::SimdSha1Hash            0      0.00%     10.98% # attempts to use FU when none available
system.switch_cpus_1.iq.fu_full::SimdSha1Hash2            0      0.00%     10.98% # attempts to use FU when none available
system.switch_cpus_1.iq.fu_full::SimdSha256Hash            0      0.00%     10.98% # attempts to use FU when none available
system.switch_cpus_1.iq.fu_full::SimdSha256Hash2            0      0.00%     10.98% # attempts to use FU when none available
system.switch_cpus_1.iq.fu_full::SimdShaSigma2            0      0.00%     10.98% # attempts to use FU when none available
system.switch_cpus_1.iq.fu_full::SimdShaSigma3            0      0.00%     10.98% # attempts to use FU when none available
system.switch_cpus_1.iq.fu_full::SimdPredAlu            0      0.00%     10.98% # attempts to use FU when none available
system.switch_cpus_1.iq.fu_full::MemRead      6994459     88.94%     99.92% # attempts to use FU when none available
system.switch_cpus_1.iq.fu_full::MemWrite         6052      0.08%    100.00% # attempts to use FU when none available
system.switch_cpus_1.iq.fu_full::FloatMemRead          245      0.00%    100.00% # attempts to use FU when none available
system.switch_cpus_1.iq.fu_full::FloatMemWrite           58      0.00%    100.00% # attempts to use FU when none available
system.switch_cpus_1.iq.fu_full::IprAccess            0      0.00%    100.00% # attempts to use FU when none available
system.switch_cpus_1.iq.fu_full::InstPrefetch            0      0.00%    100.00% # attempts to use FU when none available
system.switch_cpus_1.iq.int_alu_accesses   1527617548                       # Number of integer alu accesses
system.switch_cpus_1.iq.int_inst_queue_reads   3676916349                       # Number of integer instruction queue reads
system.switch_cpus_1.iq.int_inst_queue_wakeup_accesses   1518967967                       # Number of integer instruction queue wakeup accesses
system.switch_cpus_1.iq.int_inst_queue_writes   1537298464                       # Number of integer instruction queue writes
system.switch_cpus_1.iq.iqInstsAdded       1529953365                       # Number of instructions added to the IQ (excludes non-spec)
system.switch_cpus_1.iq.iqInstsIssued      1524945756                       # Number of instructions issued
system.switch_cpus_1.iq.iqNonSpecInstsAdded         4919                       # Number of non-speculative instructions added to the IQ
system.switch_cpus_1.iq.iqSquashedInstsExamined     14460522                       # Number of squashed instructions iterated over during squash; mainly for profiling
system.switch_cpus_1.iq.iqSquashedInstsIssued       290268                       # Number of squashed instructions issued
system.switch_cpus_1.iq.iqSquashedNonSpecRemoved         4919                       # Number of squashed non-spec instructions that were removed
system.switch_cpus_1.iq.iqSquashedOperandsExamined     23752264                       # Number of squashed operands that are examined and possibly removed from graph
system.switch_cpus_1.iq.issued_per_cycle::samples    628497070                       # Number of insts issued each cycle
system.switch_cpus_1.iq.issued_per_cycle::mean     2.426337                       # Number of insts issued each cycle
system.switch_cpus_1.iq.issued_per_cycle::stdev     2.156500                       # Number of insts issued each cycle
system.switch_cpus_1.iq.issued_per_cycle::underflows            0      0.00%      0.00% # Number of insts issued each cycle
system.switch_cpus_1.iq.issued_per_cycle::0    181331217     28.85%     28.85% # Number of insts issued each cycle
system.switch_cpus_1.iq.issued_per_cycle::1     61076916      9.72%     38.57% # Number of insts issued each cycle
system.switch_cpus_1.iq.issued_per_cycle::2    105096242     16.72%     55.29% # Number of insts issued each cycle
system.switch_cpus_1.iq.issued_per_cycle::3     88887639     14.14%     69.43% # Number of insts issued each cycle
system.switch_cpus_1.iq.issued_per_cycle::4     76800135     12.22%     81.65% # Number of insts issued each cycle
system.switch_cpus_1.iq.issued_per_cycle::5     49531178      7.88%     89.53% # Number of insts issued each cycle
system.switch_cpus_1.iq.issued_per_cycle::6     37647510      5.99%     95.52% # Number of insts issued each cycle
system.switch_cpus_1.iq.issued_per_cycle::7     18737915      2.98%     98.51% # Number of insts issued each cycle
system.switch_cpus_1.iq.issued_per_cycle::8      9388318      1.49%    100.00% # Number of insts issued each cycle
system.switch_cpus_1.iq.issued_per_cycle::overflows            0      0.00%    100.00% # Number of insts issued each cycle
system.switch_cpus_1.iq.issued_per_cycle::min_value            0                       # Number of insts issued each cycle
system.switch_cpus_1.iq.issued_per_cycle::max_value            8                       # Number of insts issued each cycle
system.switch_cpus_1.iq.issued_per_cycle::total    628497070                       # Number of insts issued each cycle
system.switch_cpus_1.iq.rate                 2.426336                       # Inst issue rate
system.switch_cpus_1.iq.vec_alu_accesses            0                       # Number of vector alu accesses
system.switch_cpus_1.iq.vec_inst_queue_reads            0                       # Number of vector instruction queue reads
system.switch_cpus_1.iq.vec_inst_queue_wakeup_accesses            0                       # Number of vector instruction queue wakeup accesses
system.switch_cpus_1.iq.vec_inst_queue_writes            0                       # Number of vector instruction queue writes
system.switch_cpus_1.itb.rdAccesses                 0                       # TLB accesses on read requests
system.switch_cpus_1.itb.rdMisses                   0                       # TLB misses on read requests
system.switch_cpus_1.itb.wrAccesses          78183924                       # TLB accesses on write requests
system.switch_cpus_1.itb.wrMisses                  26                       # TLB misses on write requests
system.switch_cpus_1.memDep0.conflictingLoads     20957064                       # Number of conflicting loads.
system.switch_cpus_1.memDep0.conflictingStores     26685619                       # Number of conflicting stores.
system.switch_cpus_1.memDep0.insertedLoads    431697570                       # Number of loads inserted to the mem dependence unit.
system.switch_cpus_1.memDep0.insertedStores    153576358                       # Number of stores inserted to the mem dependence unit.
system.switch_cpus_1.misc_regfile_reads     683019168                       # number of misc regfile reads
system.switch_cpus_1.numCycles              628497453                       # number of cpu cycles simulated
system.switch_cpus_1.numWorkItemsCompleted            0                       # number of work items this cpu completed
system.switch_cpus_1.numWorkItemsStarted            0                       # number of work items this cpu started
system.switch_cpus_1.rename.BlockCycles      60848770                       # Number of cycles rename is blocking
system.switch_cpus_1.rename.CommittedMaps   2111352788                       # Number of HB maps that are committed
system.switch_cpus_1.rename.IQFullEvents      8562549                       # Number of times rename has blocked due to IQ full
system.switch_cpus_1.rename.IdleCycles       70824605                       # Number of cycles rename is idle
system.switch_cpus_1.rename.LQFullEvents    128913202                       # Number of times rename has blocked due to LQ full
system.switch_cpus_1.rename.ROBFullEvents      6526659                       # Number of times rename has blocked due to ROB full
system.switch_cpus_1.rename.RenameLookups   5424913364                       # Number of register rename lookups that rename has made
system.switch_cpus_1.rename.RenamedInsts   1532171651                       # Number of instructions processed by rename
system.switch_cpus_1.rename.RenamedOperands   2133433092                       # Number of destination operands rename has renamed
system.switch_cpus_1.rename.RunCycles       170033845                       # Number of cycles rename is running
system.switch_cpus_1.rename.SQFullEvents    165348843                       # Number of times rename has blocked due to SQ full
system.switch_cpus_1.rename.SquashCycles       286835                       # Number of cycles rename is squashing
system.switch_cpus_1.rename.UnblockCycles    326503005                       # Number of cycles rename is unblocking
system.switch_cpus_1.rename.UndoneMaps       22080252                       # Number of HB maps that are undone due to squashing
system.switch_cpus_1.rename.fp_rename_lookups      9255506                       # Number of floating rename lookups
system.switch_cpus_1.rename.int_rename_lookups   3108908439                       # Number of integer rename lookups
system.switch_cpus_1.rename.serializeStallCycles            0                       # count of cycles rename stalled for serializing inst
system.switch_cpus_1.rename.serializingInsts            0                       # count of serializing insts renamed
system.switch_cpus_1.rename.skidInsts       404708310                       # count of insts added to the skid buffer
system.switch_cpus_1.rename.tempSerializingInsts            0                       # count of temporary serializing insts renamed
system.switch_cpus_1.rob.rob_reads         2047529970                       # The number of ROB reads
system.switch_cpus_1.rob.rob_writes        3061990324                       # The number of ROB writes
system.switch_cpus_1.timesIdled                    28                       # Number of times that the entire CPU went into an idle state and unscheduled itself
system.tol2bus.snoop_filter.hit_multi_requests          120                       # Number of requests hitting in the snoop filter with multiple (>1) holders of the requested data.
system.tol2bus.snoop_filter.hit_multi_snoops            0                       # Number of snoops hitting in the snoop filter with multiple (>1) holders of the requested data.
system.tol2bus.snoop_filter.hit_single_requests      5984510                       # Number of requests hitting in the snoop filter with a single holder of the requested data.
system.tol2bus.snoop_filter.hit_single_snoops           75                       # Number of snoops hitting in the snoop filter with a single holder of the requested data.
system.tol2bus.snoop_filter.tot_requests     11953625                       # Total number of requests made to the snoop filter.
system.tol2bus.snoop_filter.tot_snoops             75                       # Total number of snoops made to the snoop filter.
system.tol3bus.snoop_filter.hit_multi_requests            0                       # Number of requests hitting in the snoop filter with multiple (>1) holders of the requested data.
system.tol3bus.snoop_filter.hit_multi_snoops            0                       # Number of snoops hitting in the snoop filter with multiple (>1) holders of the requested data.
system.tol3bus.snoop_filter.hit_single_requests      5340204                       # Number of requests hitting in the snoop filter with a single holder of the requested data.
system.tol3bus.snoop_filter.hit_single_snoops            0                       # Number of snoops hitting in the snoop filter with a single holder of the requested data.
system.tol3bus.snoop_filter.tot_requests     10675280                       # Total number of requests made to the snoop filter.
system.tol3bus.snoop_filter.tot_snoops              0                       # Total number of snoops made to the snoop filter.
system.membus.trans_dist::ReadResp                 68                       # Transaction distribution
system.membus.trans_dist::CleanEvict               21                       # Transaction distribution
system.membus.trans_dist::ReadExReq               569                       # Transaction distribution
system.membus.trans_dist::ReadExResp              569                       # Transaction distribution
system.membus.trans_dist::ReadSharedReq            68                       # Transaction distribution
system.membus.pkt_count_system.l3.mem_side::system.mem_ctrls.port         1295                       # Packet count per connected master and slave (bytes)
system.membus.pkt_count_system.l3.mem_side::total         1295                       # Packet count per connected master and slave (bytes)
system.membus.pkt_count::total                   1295                       # Packet count per connected master and slave (bytes)
system.membus.pkt_size_system.l3.mem_side::system.mem_ctrls.port        40768                       # Cumulative packet size per connected master and slave (bytes)
system.membus.pkt_size_system.l3.mem_side::total        40768                       # Cumulative packet size per connected master and slave (bytes)
system.membus.pkt_size::total                   40768                       # Cumulative packet size per connected master and slave (bytes)
system.membus.snoops                                0                       # Total snoops (count)
system.membus.snoopTraffic                          0                       # Total snoop traffic (bytes)
system.membus.snoop_fanout::samples               637                       # Request fanout histogram
system.membus.snoop_fanout::mean                    0                       # Request fanout histogram
system.membus.snoop_fanout::stdev                   0                       # Request fanout histogram
system.membus.snoop_fanout::underflows              0      0.00%      0.00% # Request fanout histogram
system.membus.snoop_fanout::0                     637    100.00%    100.00% # Request fanout histogram
system.membus.snoop_fanout::1                       0      0.00%    100.00% # Request fanout histogram
system.membus.snoop_fanout::overflows               0      0.00%    100.00% # Request fanout histogram
system.membus.snoop_fanout::min_value               0                       # Request fanout histogram
system.membus.snoop_fanout::max_value               0                       # Request fanout histogram
system.membus.snoop_fanout::total                 637                       # Request fanout histogram
system.membus.reqLayer2.occupancy              815500                       # Layer occupancy (ticks)
system.membus.reqLayer2.utilization               0.0                       # Layer utilization (%)
system.membus.respLayer1.occupancy            3367500                       # Layer occupancy (ticks)
system.membus.respLayer1.utilization              0.0                       # Layer utilization (%)
system.membus.power_state.pwrStateResidencyTicks::UNDEFINED 1373981370000                       # Cumulative time (in ticks) in various power states
system.switch_cpus_1.dtb.walker.power_state.pwrStateResidencyTicks::UNDEFINED 1373981370000                       # Cumulative time (in ticks) in various power states
system.switch_cpus_1.itb.walker.power_state.pwrStateResidencyTicks::UNDEFINED 1373981370000                       # Cumulative time (in ticks) in various power states
system.switch_cpus_1.power_state.pwrStateResidencyTicks::OFF 1373981370000                       # Cumulative time (in ticks) in various power states
system.switch_cpus.dtb.walker.power_state.pwrStateResidencyTicks::UNDEFINED 1373981370000                       # Cumulative time (in ticks) in various power states
system.switch_cpus.itb.walker.power_state.pwrStateResidencyTicks::UNDEFINED 1373981370000                       # Cumulative time (in ticks) in various power states
system.switch_cpus.power_state.numTransitions            1                       # Number of power state transitions
system.switch_cpus.power_state.pwrStateResidencyTicks::OFF 1373981370000                       # Cumulative time (in ticks) in various power states
system.tol2bus.trans_dist::ReadResp           3079255                       # Transaction distribution
system.tol2bus.trans_dist::WritebackDirty      5777912                       # Transaction distribution
system.tol2bus.trans_dist::WritebackClean          151                       # Transaction distribution
system.tol2bus.trans_dist::CleanEvict         3063848                       # Transaction distribution
system.tol2bus.trans_dist::UpgradeReq           15395                       # Transaction distribution
system.tol2bus.trans_dist::UpgradeResp          15395                       # Transaction distribution
system.tol2bus.trans_dist::ReadExReq          2889860                       # Transaction distribution
system.tol2bus.trans_dist::ReadExResp         2889860                       # Transaction distribution
system.tol2bus.trans_dist::ReadCleanReq       3079255                       # Transaction distribution
system.tol2bus.pkt_count_system.cpu.icache.mem_side::system.l2.cpu_side          453                       # Packet count per connected master and slave (bytes)
system.tol2bus.pkt_count_system.cpu.dcache.mem_side::system.l2.cpu_side     17937682                       # Packet count per connected master and slave (bytes)
system.tol2bus.pkt_count::total              17938135                       # Packet count per connected master and slave (bytes)
system.tol2bus.pkt_size_system.cpu.icache.mem_side::system.l2.cpu_side        19328                       # Cumulative packet size per connected master and slave (bytes)
system.tol2bus.pkt_size_system.cpu.dcache.mem_side::system.l2.cpu_side    567948480                       # Cumulative packet size per connected master and slave (bytes)
system.tol2bus.pkt_size::total              567967808                       # Cumulative packet size per connected master and slave (bytes)
system.tol2bus.snoops                         2872796                       # Total snoops (count)
system.tol2bus.snoopTraffic                 183851584                       # Total snoop traffic (bytes)
system.tol2bus.snoop_fanout::samples          8857306                       # Request fanout histogram
system.tol2bus.snoop_fanout::mean            0.000022                       # Request fanout histogram
system.tol2bus.snoop_fanout::stdev           0.004692                       # Request fanout histogram
system.tol2bus.snoop_fanout::underflows             0      0.00%      0.00% # Request fanout histogram
system.tol2bus.snoop_fanout::0                8857111    100.00%    100.00% # Request fanout histogram
system.tol2bus.snoop_fanout::1                    195      0.00%    100.00% # Request fanout histogram
system.tol2bus.snoop_fanout::2                      0      0.00%    100.00% # Request fanout histogram
system.tol2bus.snoop_fanout::3                      0      0.00%    100.00% # Request fanout histogram
system.tol2bus.snoop_fanout::4                      0      0.00%    100.00% # Request fanout histogram
system.tol2bus.snoop_fanout::overflows              0      0.00%    100.00% # Request fanout histogram
system.tol2bus.snoop_fanout::min_value              0                       # Request fanout histogram
system.tol2bus.snoop_fanout::max_value              1                       # Request fanout histogram
system.tol2bus.snoop_fanout::total            8857306                       # Request fanout histogram
system.tol2bus.reqLayer0.occupancy         8882194500                       # Layer occupancy (ticks)
system.tol2bus.reqLayer0.utilization              2.8                       # Layer utilization (%)
system.tol2bus.respLayer1.occupancy        8961144997                       # Layer occupancy (ticks)
system.tol2bus.respLayer1.utilization             2.9                       # Layer utilization (%)
system.tol2bus.respLayer0.occupancy            226500                       # Layer occupancy (ticks)
system.tol2bus.respLayer0.utilization             0.0                       # Layer utilization (%)
system.tol2bus.power_state.pwrStateResidencyTicks::UNDEFINED 1373981370000                       # Cumulative time (in ticks) in various power states
system.voltage_domain.voltage                       1                       # Voltage in Volts
system.clk_domain.clock                          1000                       # Clock period in ticks
system.l2.demand_hits::.switch_cpus_1.inst           36                       # number of demand (read+write) hits
system.l2.demand_hits::.switch_cpus_1.data       633883                       # number of demand (read+write) hits
system.l2.demand_hits::total                   633919                       # number of demand (read+write) hits
system.l2.overall_hits::.switch_cpus_1.inst           36                       # number of overall hits
system.l2.overall_hits::.switch_cpus_1.data       633883                       # number of overall hits
system.l2.overall_hits::total                  633919                       # number of overall hits
system.l2.demand_misses::.switch_cpus_1.inst          115                       # number of demand (read+write) misses
system.l2.demand_misses::.switch_cpus_1.data      5335081                       # number of demand (read+write) misses
system.l2.demand_misses::total                5335196                       # number of demand (read+write) misses
system.l2.overall_misses::.switch_cpus_1.inst          115                       # number of overall misses
system.l2.overall_misses::.switch_cpus_1.data      5335081                       # number of overall misses
system.l2.overall_misses::total               5335196                       # number of overall misses
system.l2.demand_miss_latency::.switch_cpus_1.inst      8007000                       # number of demand (read+write) miss cycles
system.l2.demand_miss_latency::.switch_cpus_1.data 152644452500                       # number of demand (read+write) miss cycles
system.l2.demand_miss_latency::total     152652459500                       # number of demand (read+write) miss cycles
system.l2.overall_miss_latency::.switch_cpus_1.inst      8007000                       # number of overall miss cycles
system.l2.overall_miss_latency::.switch_cpus_1.data 152644452500                       # number of overall miss cycles
system.l2.overall_miss_latency::total    152652459500                       # number of overall miss cycles
system.l2.demand_accesses::.switch_cpus_1.inst          151                       # number of demand (read+write) accesses
system.l2.demand_accesses::.switch_cpus_1.data      5968964                       # number of demand (read+write) accesses
system.l2.demand_accesses::total              5969115                       # number of demand (read+write) accesses
system.l2.overall_accesses::.switch_cpus_1.inst          151                       # number of overall (read+write) accesses
system.l2.overall_accesses::.switch_cpus_1.data      5968964                       # number of overall (read+write) accesses
system.l2.overall_accesses::total             5969115                       # number of overall (read+write) accesses
system.l2.demand_miss_rate::.switch_cpus_1.inst     0.761589                       # miss rate for demand accesses
system.l2.demand_miss_rate::.switch_cpus_1.data     0.893804                       # miss rate for demand accesses
system.l2.demand_miss_rate::total            0.893800                       # miss rate for demand accesses
system.l2.overall_miss_rate::.switch_cpus_1.inst     0.761589                       # miss rate for overall accesses
system.l2.overall_miss_rate::.switch_cpus_1.data     0.893804                       # miss rate for overall accesses
system.l2.overall_miss_rate::total           0.893800                       # miss rate for overall accesses
system.l2.demand_avg_miss_latency::.switch_cpus_1.inst 69626.086957                       # average overall miss latency
[...]
system.cpu.dcache.demand_miss_latency::.switch_cpus_1.data 236787529988                       # number of demand (read+write) miss cycles
system.cpu.dcache.demand_miss_latency::total 245729688488                       # number of demand (read+write) miss cycles
system.cpu.dcache.overall_miss_latency::.switch_cpus.data   8942158500                       # number of overall miss cycles
system.cpu.dcache.overall_miss_latency::.switch_cpus_1.data 236787529988                       # number of overall miss cycles
system.cpu.dcache.overall_miss_latency::total 245729688488                       # number of overall miss cycles
system.cpu.dcache.demand_accesses::.cpu.data    578989829                       # number of demand (read+write) accesses
system.cpu.dcache.demand_accesses::.switch_cpus.data     29125032                       # number of demand (read+write) accesses
system.cpu.dcache.demand_accesses::.switch_cpus_1.data    556160578                       # number of demand (read+write) accesses
system.cpu.dcache.demand_accesses::total   1164275439                       # number of demand (read+write) accesses
system.cpu.dcache.overall_accesses::.cpu.data    578989829                       # number of overall (read+write) accesses
system.cpu.dcache.overall_accesses::.switch_cpus.data     29125032                       # number of overall (read+write) accesses
system.cpu.dcache.overall_accesses::.switch_cpus_1.data    556160578                       # number of overall (read+write) accesses
system.cpu.dcache.overall_accesses::total   1164275439                       # number of overall (read+write) accesses
system.cpu.dcache.demand_miss_rate::.cpu.data     0.010637                       # miss rate for demand accesses
system.cpu.dcache.demand_miss_rate::.switch_cpus.data     0.010799                       # miss rate for demand accesses
system.cpu.dcache.demand_miss_rate::.switch_cpus_1.data     0.017579                       # miss rate for demand accesses
system.cpu.dcache.demand_miss_rate::total     0.013957                       # miss rate for demand accesses
system.cpu.dcache.overall_miss_rate::.cpu.data     0.010637                       # miss rate for overall accesses
system.cpu.dcache.overall_miss_rate::.switch_cpus.data     0.010799                       # miss rate for overall accesses
system.cpu.dcache.overall_miss_rate::.switch_cpus_1.data     0.017579                       # miss rate for overall accesses
system.cpu.dcache.overall_miss_rate::total     0.013957                       # miss rate for overall accesses
system.cpu.dcache.demand_avg_miss_latency::.switch_cpus.data 28430.405242                       # average overall miss latency
system.cpu.dcache.demand_avg_miss_latency::.switch_cpus_1.data 24219.979936                       # average overall miss latency
system.cpu.dcache.demand_avg_miss_latency::total 15121.795344                       # average overall miss latency
system.cpu.dcache.overall_avg_miss_latency::.switch_cpus.data 28430.405242                       # average overall miss latency
system.cpu.dcache.overall_avg_miss_latency::.switch_cpus_1.data 24219.979936                       # average overall miss latency
system.cpu.dcache.overall_avg_miss_latency::total 15121.795344                       # average overall miss latency
system.cpu.dcache.blocked_cycles::no_mshrs       910739                       # number of cycles access was blocked
system.cpu.dcache.blocked_cycles::no_targets            0                       # number of cycles access was blocked
system.cpu.dcache.blocked::no_mshrs             52455                       # number of cycles access was blocked
system.cpu.dcache.blocked::no_targets               0                       # number of cycles access was blocked
system.cpu.dcache.avg_blocked_cycles::no_mshrs    17.362291                       # average number of cycles each access was blocked
system.cpu.dcache.avg_blocked_cycles::no_targets          nan                       # average number of cycles each access was blocked
system.cpu.dcache.writebacks::.writebacks      5944066                       # number of writebacks
system.cpu.dcache.writebacks::total           5944066                       # number of writebacks
system.cpu.dcache.demand_mshr_hits::.switch_cpus_1.data      3795359                       # number of demand (read+write) MSHR hits
system.cpu.dcache.demand_mshr_hits::total      3795359                       # number of demand (read+write) MSHR hits
system.cpu.dcache.overall_mshr_hits::.switch_cpus_1.data      3795359                       # number of overall MSHR hits
system.cpu.dcache.overall_mshr_hits::total      3795359                       # number of overall MSHR hits
system.cpu.dcache.demand_mshr_misses::.switch_cpus.data       314528                       # number of demand (read+write) MSHR misses
system.cpu.dcache.demand_mshr_misses::.switch_cpus_1.data      5981178                       # number of demand (read+write) MSHR misses
system.cpu.dcache.demand_mshr_misses::total      6295706                       # number of demand (read+write) MSHR misses
system.cpu.dcache.overall_mshr_misses::.switch_cpus.data       314528                       # number of overall MSHR misses
system.cpu.dcache.overall_mshr_misses::.switch_cpus_1.data      5981178                       # number of overall MSHR misses
system.cpu.dcache.overall_mshr_misses::total      6295706                       # number of overall MSHR misses
system.cpu.dcache.demand_mshr_miss_latency::.switch_cpus.data   8627630500                       # number of demand (read+write) MSHR miss cycles
system.cpu.dcache.demand_mshr_miss_latency::.switch_cpus_1.data 168629928988                       # number of demand (read+write) MSHR miss cycles
system.cpu.dcache.demand_mshr_miss_latency::total 177257559488                       # number of demand (read+write) MSHR miss cycles
system.cpu.dcache.overall_mshr_miss_latency::.switch_cpus.data   8627630500                       # number of overall MSHR miss cycles
system.cpu.dcache.overall_mshr_miss_latency::.switch_cpus_1.data 168629928988                       # number of overall MSHR miss cycles
system.cpu.dcache.overall_mshr_miss_latency::total 177257559488                       # number of overall MSHR miss cycles
system.cpu.dcache.demand_mshr_miss_rate::.switch_cpus.data     0.010799                       # mshr miss rate for demand accesses
system.cpu.dcache.demand_mshr_miss_rate::.switch_cpus_1.data     0.010754                       # mshr miss rate for demand accesses
system.cpu.dcache.demand_mshr_miss_rate::total     0.005407                       # mshr miss rate for demand accesses
system.cpu.dcache.overall_mshr_miss_rate::.switch_cpus.data     0.010799                       # mshr miss rate for overall accesses
system.cpu.dcache.overall_mshr_miss_rate::.switch_cpus_1.data     0.010754                       # mshr miss rate for overall accesses
system.cpu.dcache.overall_mshr_miss_rate::total     0.005407                       # mshr miss rate for overall accesses
system.cpu.dcache.demand_avg_mshr_miss_latency::.switch_cpus.data 27430.405242                       # average overall mshr miss latency
system.cpu.dcache.demand_avg_mshr_miss_latency::.switch_cpus_1.data 28193.430958                       # average overall mshr miss latency
system.cpu.dcache.demand_avg_mshr_miss_latency::total 28155.310856                       # average overall mshr miss latency
system.cpu.dcache.overall_avg_mshr_miss_latency::.switch_cpus.data 27430.405242                       # average overall mshr miss latency
system.cpu.dcache.overall_avg_mshr_miss_latency::.switch_cpus_1.data 28193.430958                       # average overall mshr miss latency
system.cpu.dcache.overall_avg_mshr_miss_latency::total 28155.310856                       # average overall mshr miss latency
system.cpu.dcache.replacements               12422080                       # number of replacements
system.cpu.dcache.ReadReq_hits::.cpu.data    423154037                       # number of ReadReq hits
system.cpu.dcache.ReadReq_hits::.switch_cpus.data     21302592                       # number of ReadReq hits
system.cpu.dcache.ReadReq_hits::.switch_cpus_1.data    396273423                       # number of ReadReq hits
system.cpu.dcache.ReadReq_hits::total       840730052                       # number of ReadReq hits
system.cpu.dcache.ReadReq_misses::.cpu.data      3266661                       # number of ReadReq misses
system.cpu.dcache.ReadReq_misses::.switch_cpus.data       167807                       # number of ReadReq misses
system.cpu.dcache.ReadReq_misses::.switch_cpus_1.data      6871282                       # number of ReadReq misses
system.cpu.dcache.ReadReq_misses::total      10305750                       # number of ReadReq misses
system.cpu.dcache.ReadReq_miss_latency::.switch_cpus.data   4440638000                       # number of ReadReq miss cycles
system.cpu.dcache.ReadReq_miss_latency::.switch_cpus_1.data 146746427000                       # number of ReadReq miss cycles
system.cpu.dcache.ReadReq_miss_latency::total 151187065000                       # number of ReadReq miss cycles
system.cpu.dcache.ReadReq_accesses::.cpu.data    426420698                       # number of ReadReq accesses(hits+misses)
system.cpu.dcache.ReadReq_accesses::.switch_cpus.data     21470399                       # number of ReadReq accesses(hits+misses)
system.cpu.dcache.ReadReq_accesses::.switch_cpus_1.data    403144705                       # number of ReadReq accesses(hits+misses)
system.cpu.dcache.ReadReq_accesses::total    851035802                       # number of ReadReq accesses(hits+misses)
system.cpu.dcache.ReadReq_miss_rate::.cpu.data     0.007661                       # miss rate for ReadReq accesses
system.cpu.dcache.ReadReq_miss_rate::.switch_cpus.data     0.007816                       # miss rate for ReadReq accesses
system.cpu.dcache.ReadReq_miss_rate::.switch_cpus_1.data     0.017044                       # miss rate for ReadReq accesses
system.cpu.dcache.ReadReq_miss_rate::total     0.012110                       # miss rate for ReadReq accesses
system.cpu.dcache.ReadReq_avg_miss_latency::.switch_cpus.data 26462.769730                       # average ReadReq miss latency
system.cpu.dcache.ReadReq_avg_miss_latency::.switch_cpus_1.data 21356.484423                       # average ReadReq miss latency
system.cpu.dcache.ReadReq_avg_miss_latency::total 14670.166169                       # average ReadReq miss latency
system.cpu.dcache.ReadReq_mshr_hits::.switch_cpus_1.data      3792178                       # number of ReadReq MSHR hits
system.cpu.dcache.ReadReq_mshr_hits::total      3792178                       # number of ReadReq MSHR hits
system.cpu.dcache.ReadReq_mshr_misses::.switch_cpus.data       167807                       # number of ReadReq MSHR misses
system.cpu.dcache.ReadReq_mshr_misses::.switch_cpus_1.data      3079104                       # number of ReadReq MSHR misses
system.cpu.dcache.ReadReq_mshr_misses::total      3246911                       # number of ReadReq MSHR misses
system.cpu.dcache.ReadReq_mshr_miss_latency::.switch_cpus.data   4272831000                       # number of ReadReq MSHR miss cycles
system.cpu.dcache.ReadReq_mshr_miss_latency::.switch_cpus_1.data  81494081000                       # number of ReadReq MSHR miss cycles
system.cpu.dcache.ReadReq_mshr_miss_latency::total  85766912000                       # number of ReadReq MSHR miss cycles
system.cpu.dcache.ReadReq_mshr_miss_rate::.switch_cpus.data     0.007816                       # mshr miss rate for ReadReq accesses
system.cpu.dcache.ReadReq_mshr_miss_rate::.switch_cpus_1.data     0.007638                       # mshr miss rate for ReadReq accesses
system.cpu.dcache.ReadReq_mshr_miss_rate::total     0.003815                       # mshr miss rate for ReadReq accesses
system.cpu.dcache.ReadReq_avg_mshr_miss_latency::.switch_cpus.data 25462.769730                       # average ReadReq mshr miss latency
system.cpu.dcache.ReadReq_avg_mshr_miss_latency::.switch_cpus_1.data 26466.816645                       # average ReadReq mshr miss latency
system.cpu.dcache.ReadReq_avg_mshr_miss_latency::total 26414.925448                       # average ReadReq mshr miss latency
system.cpu.dcache.WriteReq_hits::.cpu.data    149676823                       # number of WriteReq hits
system.cpu.dcache.WriteReq_hits::.switch_cpus.data      7507912                       # number of WriteReq hits
system.cpu.dcache.WriteReq_hits::.switch_cpus_1.data    150110618                       # number of WriteReq hits
system.cpu.dcache.WriteReq_hits::total      307295353                       # number of WriteReq hits
system.cpu.dcache.WriteReq_misses::.cpu.data      2892308                       # number of WriteReq misses
system.cpu.dcache.WriteReq_misses::.switch_cpus.data       146721                       # number of WriteReq misses
system.cpu.dcache.WriteReq_misses::.switch_cpus_1.data      2905255                       # number of WriteReq misses
system.cpu.dcache.WriteReq_misses::total      5944284                       # number of WriteReq misses
system.cpu.dcache.WriteReq_miss_latency::.switch_cpus.data   4501520500                       # number of WriteReq miss cycles
system.cpu.dcache.WriteReq_miss_latency::.switch_cpus_1.data  90041102988                       # number of WriteReq miss cycles
system.cpu.dcache.WriteReq_miss_latency::total  94542623488                       # number of WriteReq miss cycles
system.cpu.dcache.WriteReq_accesses::.cpu.data    152569131                       # number of WriteReq accesses(hits+misses)
system.cpu.dcache.WriteReq_accesses::.switch_cpus.data      7654633                       # number of WriteReq accesses(hits+misses)
system.cpu.dcache.WriteReq_accesses::.switch_cpus_1.data    153015873                       # number of WriteReq accesses(hits+misses)
system.cpu.dcache.WriteReq_accesses::total    313239637                       # number of WriteReq accesses(hits+misses)
system.cpu.dcache.WriteReq_miss_rate::.cpu.data     0.018957                       # miss rate for WriteReq accesses
system.cpu.dcache.WriteReq_miss_rate::.switch_cpus.data     0.019168                       # miss rate for WriteReq accesses
system.cpu.dcache.WriteReq_miss_rate::.switch_cpus_1.data     0.018987                       # miss rate for WriteReq accesses
system.cpu.dcache.WriteReq_miss_rate::total     0.018977                       # miss rate for WriteReq accesses
system.cpu.dcache.WriteReq_avg_miss_latency::.switch_cpus.data 30680.819378                       # average WriteReq miss latency
system.cpu.dcache.WriteReq_avg_miss_latency::.switch_cpus_1.data 30992.495663                       # average WriteReq miss latency
system.cpu.dcache.WriteReq_avg_miss_latency::total 15904.795849                       # average WriteReq miss latency
system.cpu.dcache.WriteReq_mshr_hits::.switch_cpus_1.data         3181                       # number of WriteReq MSHR hits
system.cpu.dcache.WriteReq_mshr_hits::total         3181                       # number of WriteReq MSHR hits
system.cpu.dcache.WriteReq_mshr_misses::.switch_cpus.data       146721                       # number of WriteReq MSHR misses
system.cpu.dcache.WriteReq_mshr_misses::.switch_cpus_1.data      2902074                       # number of WriteReq MSHR misses
system.cpu.dcache.WriteReq_mshr_misses::total      3048795                       # number of WriteReq MSHR misses
system.cpu.dcache.WriteReq_mshr_miss_latency::.switch_cpus.data   4354799500                       # number of WriteReq MSHR miss cycles
system.cpu.dcache.WriteReq_mshr_miss_latency::.switch_cpus_1.data  87135847988                       # number of WriteReq MSHR miss cycles
system.cpu.dcache.WriteReq_mshr_miss_latency::total  91490647488                       # number of WriteReq MSHR miss cycles
system.cpu.dcache.WriteReq_mshr_miss_rate::.switch_cpus.data     0.019168                       # mshr miss rate for WriteReq accesses
system.cpu.dcache.WriteReq_mshr_miss_rate::.switch_cpus_1.data     0.018966                       # mshr miss rate for WriteReq accesses
system.cpu.dcache.WriteReq_mshr_miss_rate::total     0.009733                       # mshr miss rate for WriteReq accesses
system.cpu.dcache.WriteReq_avg_mshr_miss_latency::.switch_cpus.data 29680.819378                       # average WriteReq mshr miss latency
system.cpu.dcache.WriteReq_avg_mshr_miss_latency::.switch_cpus_1.data 30025.370817                       # average WriteReq mshr miss latency
system.cpu.dcache.WriteReq_avg_mshr_miss_latency::total 30008.789534                       # average WriteReq mshr miss latency
system.cpu.dcache.power_state.pwrStateResidencyTicks::UNDEFINED 1373981370000                       # Cumulative time (in ticks) in various power states
system.cpu.dcache.tags.tagsinuse           511.994650                       # Cycle average of tags in use
system.cpu.dcache.tags.total_refs          1160485612                       # Total number of references to valid blocks.
system.cpu.dcache.tags.sampled_refs          12422592                       # Sample count of references to valid blocks.
system.cpu.dcache.tags.avg_refs             93.417349                       # Average number of references to valid blocks.
system.cpu.dcache.tags.warmup_cycle              1500                       # Cycle when the warmup percentage was hit.
system.cpu.dcache.tags.occ_blocks::.cpu.data   355.597706                       # Average occupied blocks per requestor
system.cpu.dcache.tags.occ_blocks::.switch_cpus.data    39.318037                       # Average occupied blocks per requestor
system.cpu.dcache.tags.occ_blocks::.switch_cpus_1.data   117.078907                       # Average occupied blocks per requestor
system.cpu.dcache.tags.occ_percent::.cpu.data     0.694527                       # Average percentage of cache occupancy
system.cpu.dcache.tags.occ_percent::.switch_cpus.data     0.076793                       # Average percentage of cache occupancy
system.cpu.dcache.tags.occ_percent::.switch_cpus_1.data     0.228670                       # Average percentage of cache occupancy
system.cpu.dcache.tags.occ_percent::total     0.999990                       # Average percentage of cache occupancy
system.cpu.dcache.tags.occ_task_id_blocks::1024          512                       # Occupied blocks per task id
system.cpu.dcache.tags.age_task_id_blocks_1024::0          180                       # Occupied blocks per task id
system.cpu.dcache.tags.age_task_id_blocks_1024::1          265                       # Occupied blocks per task id
system.cpu.dcache.tags.age_task_id_blocks_1024::2           53                       # Occupied blocks per task id
system.cpu.dcache.tags.age_task_id_blocks_1024::3           14                       # Occupied blocks per task id
system.cpu.dcache.tags.occ_task_id_percent::1024            1                       # Percentage of cache occupancy per task id
system.cpu.dcache.tags.tag_accesses        4669524348                       # Number of tag accesses
system.cpu.dcache.tags.data_accesses       4669524348                       # Number of data accesses
system.cpu.dcache.tags.power_state.pwrStateResidencyTicks::UNDEFINED 1373981370000                       # Cumulative time (in ticks) in various power states
system.cpu.power_state.numTransitions               2                       # Number of power state transitions
system.cpu.power_state.pwrStateResidencyTicks::ON 952815049000                       # Cumulative time (in ticks) in various power states
system.cpu.power_state.pwrStateResidencyTicks::OFF 421166321000                       # Cumulative time (in ticks) in various power states

---------- End Simulation Statistics   ----------
