
---------- Begin Simulation Statistics ----------
final_tick                               1433953694000                       # Number of ticks from beginning of simulation (restored from checkpoints and never reset)
host_inst_rate                                 201413                       # Simulator instruction rate (inst/s)
host_mem_usage                                4551052                       # Number of bytes of host memory used
host_op_rate                                   341339                       # Simulator op (including micro ops) rate (op/s)
host_seconds                                  6950.07                       # Real time elapsed on the host
host_tick_rate                               42643387                       # Simulator tick rate (ticks/s)
sim_freq                                 1000000000000                       # Frequency of simulated ticks
sim_insts                                  1399837607                       # Number of instructions simulated
sim_ops                                    2372328857                       # Number of ops (including micro ops) simulated
sim_seconds                                  0.296375                       # Number of seconds simulated
sim_ticks                                296374659750                       # Number of ticks simulated
system.cpu.committedInsts                           0                       # Number of instructions committed
system.cpu.committedOps                             0                       # Number of ops (including micro ops) committed
system.cpu.dtb.rdAccesses                           0                       # TLB accesses on read requests
system.cpu.dtb.rdMisses                             0                       # TLB misses on read requests
system.cpu.dtb.wrAccesses                           0                       # TLB accesses on write requests
system.cpu.dtb.wrMisses                             0                       # TLB misses on write requests
system.cpu.idle_fraction                            0                       # Percentage of idle cycles
system.cpu.itb.rdAccesses                           0                       # TLB accesses on read requests
system.cpu.itb.rdMisses                             0                       # TLB misses on read requests
system.cpu.itb.wrAccesses                           0                       # TLB accesses on write requests
system.cpu.itb.wrMisses                             0                       # TLB misses on write requests
system.cpu.not_idle_fraction                        1                       # Percentage of non-idle cycles
system.cpu.numCycles                                0                       # number of cpu cycles simulated
system.cpu.numWorkItemsCompleted                    0                       # number of work items this cpu completed
system.cpu.numWorkItemsStarted                      0                       # number of work items this cpu started
system.cpu.num_busy_cycles                          0                       # Number of busy cycles
system.cpu.num_conditional_control_insts            0                       # number of instructions that are conditional controls
system.cpu.num_fp_alu_accesses                      0                       # Number of float alu accesses
system.cpu.num_fp_insts                             0                       # number of float instructions
system.cpu.num_fp_register_reads                    0                       # number of times the floating registers were read
system.cpu.num_fp_register_writes                   0                       # number of times the floating registers were written
system.cpu.num_func_calls                           0                       # number of times a function call or return occured
system.cpu.num_idle_cycles                          0                       # Number of idle cycles
system.cpu.num_int_alu_accesses                     0                       # Number of integer alu accesses
system.cpu.num_int_insts                            0                       # number of integer instructions
system.cpu.num_int_register_reads                   0                       # number of times the integer registers were read
system.cpu.num_int_register_writes                  0                       # number of times the integer registers were written
system.cpu.num_load_insts                           0                       # Number of load instructions
system.cpu.num_mem_refs                             0                       # number of memory refs
system.cpu.num_store_insts                          0                       # Number of store instructions
system.cpu.num_vec_alu_accesses                     0                       # Number of vector alu accesses
system.cpu.num_vec_insts                            0                       # number of vector instructions
system.cpu.num_vec_register_reads                   0                       # number of times the vector registers were read
system.cpu.num_vec_register_writes                  0                       # number of times the vector registers were written
system.cpu.op_class::No_OpClass                     0                       # Class of executed instruction
system.cpu.op_class::IntAlu                         0                       # Class of executed instruction
system.cpu.op_class::IntMult                        0                       # Class of executed instruction
system.cpu.op_class::IntDiv                         0                       # Class of executed instruction
system.cpu.op_class::FloatAdd                       0                       # Class of executed instruction
system.cpu.op_class::FloatCmp                       0                       # Class of executed instruction
system.cpu.op_class::FloatCvt                       0                       # Class of executed instruction
system.cpu.op_class::FloatMult                      0                       # Class of executed instruction
system.cpu.op_class::FloatMultAcc                   0                       # Class of executed instruction
system.cpu.op_class::FloatDiv                       0                       # Class of executed instruction
system.cpu.op_class::FloatMisc                      0                       # Class of executed instruction
system.cpu.op_class::FloatSqrt                      0                       # Class of executed instruction
system.cpu.op_class::SimdAdd                        0                       # Class of executed instruction
system.cpu.op_class::SimdAddAcc                     0                       # Class of executed instruction
system.cpu.op_class::SimdAlu                        0                       # Class of executed instruction
system.cpu.op_class::SimdCmp                        0                       # Class of executed instruction
system.cpu.op_class::SimdCvt                        0                       # Class of executed instruction
system.cpu.op_class::SimdMisc                       0                       # Class of executed instruction
system.cpu.op_class::SimdMult                       0                       # Class of executed instruction
system.cpu.op_class::SimdMultAcc                    0                       # Class of executed instruction
system.cpu.op_class::SimdShift                      0                       # Class of executed instruction
system.cpu.op_class::SimdShiftAcc                   0                       # Class of executed instruction
system.cpu.op_class::SimdDiv                        0                       # Class of executed instruction
system.cpu.op_class::SimdSqrt                       0                       # Class of executed instruction
system.cpu.op_class::SimdFloatAdd                   0                       # Class of executed instruction
system.cpu.op_class::SimdFloatAlu                   0                       # Class of executed instruction
system.cpu.op_class::SimdFloatCmp                   0                       # Class of executed instruction
system.cpu.op_class::SimdFloatCvt                   0                       # Class of executed instruction
system.cpu.op_class::SimdFloatDiv                   0                       # Class of executed instruction
system.cpu.op_class::SimdFloatMisc                  0                       # Class of executed instruction
system.cpu.op_class::SimdFloatMult                  0                       # Class of executed instruction
system.cpu.op_class::SimdFloatMultAcc               0                       # Class of executed instruction
system.cpu.op_class::SimdFloatSqrt                  0                       # Class of executed instruction
system.cpu.op_class::SimdReduceAdd                  0                       # Class of executed instruction
system.cpu.op_class::SimdReduceAlu                  0                       # Class of executed instruction
system.cpu.op_class::SimdReduceCmp                  0                       # Class of executed instruction
system.cpu.op_class::SimdFloatReduceAdd             0                       # Class of executed instruction
system.cpu.op_class::SimdFloatReduceCmp             0                       # Class of executed instruction
system.cpu.op_class::SimdAes                        0                       # Class of executed instruction
system.cpu.op_class::SimdAesMix                     0                       # Class of executed instruction
system.cpu.op_class::SimdSha1Hash                   0                       # Class of executed instruction
system.cpu.op_class::SimdSha1Hash2                  0                       # Class of executed instruction
system.cpu.op_class::SimdSha256Hash                 0                       # Class of executed instruction
system.cpu.op_class::SimdSha256Hash2                0                       # Class of executed instruction
system.cpu.op_class::SimdShaSigma2                  0                       # Class of executed instruction
system.cpu.op_class::SimdShaSigma3                  0                       # Class of executed instruction
system.cpu.op_class::SimdPredAlu                    0                       # Class of executed instruction
system.cpu.op_class::MemRead                        0                       # Class of executed instruction
system.cpu.op_class::MemWrite                       0                       # Class of executed instruction
system.cpu.op_class::FloatMemRead                   0                       # Class of executed instruction
system.cpu.op_class::FloatMemWrite                  0                       # Class of executed instruction
system.cpu.op_class::IprAccess                      0                       # Class of executed instruction
system.cpu.op_class::InstPrefetch                   0                       # Class of executed instruction
system.cpu.op_class::total                          0                       # Class of executed instruction
system.cpu.workload.numSyscalls                     6                       # Number of system calls
system.membus.snoop_filter.hit_multi_requests            0                       # Number of requests hitting in the snoop filter with multiple (>1) holders of the requested data.
system.membus.snoop_filter.hit_multi_snoops            0                       # Number of snoops hitting in the snoop filter with multiple (>1) holders of the requested data.
system.membus.snoop_filter.hit_single_requests       878262                       # Number of requests hitting in the snoop filter with a single holder of the requested data.
system.membus.snoop_filter.hit_single_snoops            0                       # Number of snoops hitting in the snoop filter with a single holder of the requested data.
system.membus.snoop_filter.tot_requests       1756539                       # Total number of requests made to the snoop filter.
system.membus.snoop_filter.tot_snoops               0                       # Total number of snoops made to the snoop filter.
system.switch_cpus.committedInsts                   0                       # Number of instructions committed
system.switch_cpus.committedOps                     0                       # Number of ops (including micro ops) committed
system.switch_cpus.dtb.rdAccesses                   0                       # TLB accesses on read requests
system.switch_cpus.dtb.rdMisses                     0                       # TLB misses on read requests
system.switch_cpus.dtb.wrAccesses                   0                       # TLB accesses on write requests
system.switch_cpus.dtb.wrMisses                     0                       # TLB misses on write requests
system.switch_cpus.idle_fraction                    0                       # Percentage of idle cycles
system.switch_cpus.itb.rdAccesses                   0                       # TLB accesses on read requests
system.switch_cpus.itb.rdMisses                     0                       # TLB misses on read requests
system.switch_cpus.itb.wrAccesses                   0                       # TLB accesses on write requests
system.switch_cpus.itb.wrMisses                     0                       # TLB misses on write requests
system.switch_cpus.not_idle_fraction                1                       # Percentage of non-idle cycles
system.switch_cpus.numCycles                        0                       # number of cpu cycles simulated
system.switch_cpus.numWorkItemsCompleted            0                       # number of work items this cpu completed
system.switch_cpus.numWorkItemsStarted              0                       # number of work items this cpu started
system.switch_cpus.num_busy_cycles                  0                       # Number of busy cycles
system.switch_cpus.num_conditional_control_insts            0                       # number of instructions that are conditional controls
system.switch_cpus.num_fp_alu_accesses              0                       # Number of float alu accesses
system.switch_cpus.num_fp_insts                     0                       # number of float instructions
system.switch_cpus.num_fp_register_reads            0                       # number of times the floating registers were read
system.switch_cpus.num_fp_register_writes            0                       # number of times the floating registers were written
system.switch_cpus.num_func_calls                   0                       # number of times a function call or return occured
system.switch_cpus.num_idle_cycles                  0                       # Number of idle cycles
system.switch_cpus.num_int_alu_accesses             0                       # Number of integer alu accesses
system.switch_cpus.num_int_insts                    0                       # number of integer instructions
system.switch_cpus.num_int_register_reads            0                       # number of times the integer registers were read
system.switch_cpus.num_int_register_writes            0                       # number of times the integer registers were written
system.switch_cpus.num_load_insts                   0                       # Number of load instructions
system.switch_cpus.num_mem_refs                     0                       # number of memory refs
system.switch_cpus.num_store_insts                  0                       # Number of store instructions
system.switch_cpus.num_vec_alu_accesses             0                       # Number of vector alu accesses
system.switch_cpus.num_vec_insts                    0                       # number of vector instructions
system.switch_cpus.num_vec_register_reads            0                       # number of times the vector registers were read
system.switch_cpus.num_vec_register_writes            0                       # number of times the vector registers were written
system.switch_cpus.op_class::No_OpClass             0                       # Class of executed instruction
system.switch_cpus.op_class::IntAlu                 0                       # Class of executed instruction
system.switch_cpus.op_class::IntMult                0                       # Class of executed instruction
system.switch_cpus.op_class::IntDiv                 0                       # Class of executed instruction
system.switch_cpus.op_class::FloatAdd               0                       # Class of executed instruction
system.switch_cpus.op_class::FloatCmp               0                       # Class of executed instruction
system.switch_cpus.op_class::FloatCvt               0                       # Class of executed instruction
system.switch_cpus.op_class::FloatMult              0                       # Class of executed instruction
system.switch_cpus.op_class::FloatMultAcc            0                       # Class of executed instruction
system.switch_cpus.op_class::FloatDiv               0                       # Class of executed instruction
system.switch_cpus.op_class::FloatMisc              0                       # Class of executed instruction
system.switch_cpus.op_class::FloatSqrt              0                       # Class of executed instruction
system.switch_cpus.op_class::SimdAdd                0                       # Class of executed instruction
system.switch_cpus.op_class::SimdAddAcc             0                       # Class of executed instruction
system.switch_cpus.op_class::SimdAlu                0                       # Class of executed instruction
system.switch_cpus.op_class::SimdCmp                0                       # Class of executed instruction
system.switch_cpus.op_class::SimdCvt                0                       # Class of executed instruction
system.switch_cpus.op_class::SimdMisc               0                       # Class of executed instruction
system.switch_cpus.op_class::SimdMult               0                       # Class of executed instruction
system.switch_cpus.op_class::SimdMultAcc            0                       # Class of executed instruction
system.switch_cpus.op_class::SimdShift              0                       # Class of executed instruction
system.switch_cpus.op_class::SimdShiftAcc            0                       # Class of executed instruction
system.switch_cpus.op_class::SimdDiv                0                       # Class of executed instruction
system.switch_cpus.op_class::SimdSqrt               0                       # Class of executed instruction
system.switch_cpus.op_class::SimdFloatAdd            0                       # Class of executed instruction
system.switch_cpus.op_class::SimdFloatAlu            0                       # Class of executed instruction
system.switch_cpus.op_class::SimdFloatCmp            0                       # Class of executed instruction
system.switch_cpus.op_class::SimdFloatCvt            0                       # Class of executed instruction
system.switch_cpus.op_class::SimdFloatDiv            0                       # Class of executed instruction
system.switch_cpus.op_class::SimdFloatMisc            0                       # Class of executed instruction
system.switch_cpus.op_class::SimdFloatMult            0                       # Class of executed instruction
system.switch_cpus.op_class::SimdFloatMultAcc            0                       # Class of executed instruction
system.switch_cpus.op_class::SimdFloatSqrt            0                       # Class of executed instruction
system.switch_cpus.op_class::SimdReduceAdd            0                       # Class of executed instruction
system.switch_cpus.op_class::SimdReduceAlu            0                       # Class of executed instruction
system.switch_cpus.op_class::SimdReduceCmp            0                       # Class of executed instruction
system.switch_cpus.op_class::SimdFloatReduceAdd            0                       # Class of executed instruction
system.switch_cpus.op_class::SimdFloatReduceCmp            0                       # Class of executed instruction
system.switch_cpus.op_class::SimdAes                0                       # Class of executed instruction
system.switch_cpus.op_class::SimdAesMix             0                       # Class of executed instruction
system.switch_cpus.op_class::SimdSha1Hash            0                       # Class of executed instruction
system.switch_cpus.op_class::SimdSha1Hash2            0                       # Class of executed instruction
system.switch_cpus.op_class::SimdSha256Hash            0                       # Class of executed instruction
system.switch_cpus.op_class::SimdSha256Hash2            0                       # Class of executed instruction
system.switch_cpus.op_class::SimdShaSigma2            0                       # Class of executed instruction
system.switch_cpus.op_class::SimdShaSigma3            0                       # Class of executed instruction
system.switch_cpus.op_class::SimdPredAlu            0                       # Class of executed instruction
system.switch_cpus.op_class::MemRead                0                       # Class of executed instruction
system.switch_cpus.op_class::MemWrite               0                       # Class of executed instruction
system.switch_cpus.op_class::FloatMemRead            0                       # Class of executed instruction
system.switch_cpus.op_class::FloatMemWrite            0                       # Class of executed instruction
system.switch_cpus.op_class::IprAccess              0                       # Class of executed instruction
system.switch_cpus.op_class::InstPrefetch            0                       # Class of executed instruction
system.switch_cpus.op_class::total                  0                       # Class of executed instruction
system.switch_cpus_1.branchPred.BTBCorrect            0                       # Number of correct BTB predictions (this stat may not work properly.
system.switch_cpus_1.branchPred.BTBHitPct          nan                       # BTB Hit Percentage
system.switch_cpus_1.branchPred.BTBHits             0                       # Number of BTB hits
system.switch_cpus_1.branchPred.BTBLookups            0                       # Number of BTB lookups
system.switch_cpus_1.branchPred.RASInCorrect           42                       # Number of incorrect RAS predictions.
system.switch_cpus_1.branchPred.condIncorrect     10995316                       # Number of conditional branches incorrect
system.switch_cpus_1.branchPred.condPredicted    117365469                       # Number of conditional branches predicted
system.switch_cpus_1.branchPred.indirectHits     38323992                       # Number of indirect target hits.
system.switch_cpus_1.branchPred.indirectLookups     64425711                       # Number of indirect predictor lookups.
system.switch_cpus_1.branchPred.indirectMisses     26101719                       # Number of indirect misses.
system.switch_cpus_1.branchPred.lookups     124840485                       # Number of BP lookups
system.switch_cpus_1.branchPred.usedRAS       2640833                       # Number of times the RAS was used to get a target.
system.switch_cpus_1.branchPredindirectMispredicted      6148982                       # Number of mispredicted indirect branches.
system.switch_cpus_1.cc_regfile_reads       361358468                       # number of cc regfile reads
system.switch_cpus_1.cc_regfile_writes      313999139                       # number of cc regfile writes
system.switch_cpus_1.commit.amos                    0                       # Number of atomic instructions committed
system.switch_cpus_1.commit.branchMispredicts     10995767                       # The number of times a branch was mispredicted
system.switch_cpus_1.commit.branches         57167655                       # Number of branches committed
system.switch_cpus_1.commit.bw_lim_events     34279814                       # number cycles where commit BW limit reached
system.switch_cpus_1.commit.commitNonSpecStalls            6                       # The number of times commit has been forced to stall to communicate backwards
system.switch_cpus_1.commit.commitSquashedInsts    423881363                       # The number of squashed insts skipped by commit
system.switch_cpus_1.commit.committedInsts    349837605                       # Number of instructions committed
system.switch_cpus_1.commit.committedOps    591390458                       # Number of ops (including micro ops) committed
system.switch_cpus_1.commit.committed_per_cycle::samples    530027887                       # Number of insts commited each cycle
system.switch_cpus_1.commit.committed_per_cycle::mean     1.115772                       # Number of insts commited each cycle
system.switch_cpus_1.commit.committed_per_cycle::stdev     2.199950                       # Number of insts commited each cycle
system.switch_cpus_1.commit.committed_per_cycle::underflows            0      0.00%      0.00% # Number of insts commited each cycle
system.switch_cpus_1.commit.committed_per_cycle::0    351912650     66.40%     66.40% # Number of insts commited each cycle
system.switch_cpus_1.commit.committed_per_cycle::1     69591062     13.13%     79.52% # Number of insts commited each cycle
system.switch_cpus_1.commit.committed_per_cycle::2     22688636      4.28%     83.81% # Number of insts commited each cycle
system.switch_cpus_1.commit.committed_per_cycle::3     26466994      4.99%     88.80% # Number of insts commited each cycle
system.switch_cpus_1.commit.committed_per_cycle::4     13529745      2.55%     91.35% # Number of insts commited each cycle
system.switch_cpus_1.commit.committed_per_cycle::5      4496104      0.85%     92.20% # Number of insts commited each cycle
system.switch_cpus_1.commit.committed_per_cycle::6      3257044      0.61%     92.81% # Number of insts commited each cycle
system.switch_cpus_1.commit.committed_per_cycle::7      3805838      0.72%     93.53% # Number of insts commited each cycle
system.switch_cpus_1.commit.committed_per_cycle::8     34279814      6.47%    100.00% # Number of insts commited each cycle
system.switch_cpus_1.commit.committed_per_cycle::overflows            0      0.00%    100.00% # Number of insts commited each cycle
system.switch_cpus_1.commit.committed_per_cycle::min_value            0                       # Number of insts commited each cycle
system.switch_cpus_1.commit.committed_per_cycle::max_value            8                       # Number of insts commited each cycle
system.switch_cpus_1.commit.committed_per_cycle::total    530027887                       # Number of insts commited each cycle
system.switch_cpus_1.commit.fp_insts           157352                       # Number of committed floating point instructions.
system.switch_cpus_1.commit.function_calls      1587937                       # Number of function calls committed.
system.switch_cpus_1.commit.int_insts       590654199                       # Number of committed integer instructions.
system.switch_cpus_1.commit.loads           104027398                       # Number of loads committed
system.switch_cpus_1.commit.membars                 0                       # Number of memory barriers committed
system.switch_cpus_1.commit.op_class_0::No_OpClass       735700      0.12%      0.12% # Class of committed instruction
system.switch_cpus_1.commit.op_class_0::IntAlu    451836539     76.40%     76.53% # Class of committed instruction
system.switch_cpus_1.commit.op_class_0::IntMult          343      0.00%     76.53% # Class of committed instruction
system.switch_cpus_1.commit.op_class_0::IntDiv          153      0.00%     76.53% # Class of committed instruction
system.switch_cpus_1.commit.op_class_0::FloatAdd            8      0.00%     76.53% # Class of committed instruction
system.switch_cpus_1.commit.op_class_0::FloatCmp            0      0.00%     76.53% # Class of committed instruction
system.switch_cpus_1.commit.op_class_0::FloatCvt            0      0.00%     76.53% # Class of committed instruction
system.switch_cpus_1.commit.op_class_0::FloatMult            0      0.00%     76.53% # Class of committed instruction
system.switch_cpus_1.commit.op_class_0::FloatMultAcc            0      0.00%     76.53% # Class of committed instruction
system.switch_cpus_1.commit.op_class_0::FloatDiv            0      0.00%     76.53% # Class of committed instruction
system.switch_cpus_1.commit.op_class_0::FloatMisc            0      0.00%     76.53% # Class of committed instruction
system.switch_cpus_1.commit.op_class_0::FloatSqrt            0      0.00%     76.53% # Class of committed instruction
system.switch_cpus_1.commit.op_class_0::SimdAdd            0      0.00%     76.53% # Class of committed instruction
system.switch_cpus_1.commit.op_class_0::SimdAddAcc            0      0.00%     76.53% # Class of committed instruction
system.switch_cpus_1.commit.op_class_0::SimdAlu           32      0.00%     76.53% # Class of committed instruction
system.switch_cpus_1.commit.op_class_0::SimdCmp            0      0.00%     76.53% # Class of committed instruction
system.switch_cpus_1.commit.op_class_0::SimdCvt           56      0.00%     76.53% # Class of committed instruction
system.switch_cpus_1.commit.op_class_0::SimdMisc          112      0.00%     76.53% # Class of committed instruction
system.switch_cpus_1.commit.op_class_0::SimdMult            0      0.00%     76.53% # Class of committed instruction
system.switch_cpus_1.commit.op_class_0::SimdMultAcc            0      0.00%     76.53% # Class of committed instruction
system.switch_cpus_1.commit.op_class_0::SimdShift            0      0.00%     76.53% # Class of committed instruction
system.switch_cpus_1.commit.op_class_0::SimdShiftAcc            0      0.00%     76.53% # Class of committed instruction
system.switch_cpus_1.commit.op_class_0::SimdDiv            0      0.00%     76.53% # Class of committed instruction
system.switch_cpus_1.commit.op_class_0::SimdSqrt            0      0.00%     76.53% # Class of committed instruction
system.switch_cpus_1.commit.op_class_0::SimdFloatAdd            0      0.00%     76.53% # Class of committed instruction
system.switch_cpus_1.commit.op_class_0::SimdFloatAlu            0      0.00%     76.53% # Class of committed instruction
system.switch_cpus_1.commit.op_class_0::SimdFloatCmp            0      0.00%     76.53% # Class of committed instruction
system.switch_cpus_1.commit.op_class_0::SimdFloatCvt            0      0.00%     76.53% # Class of committed instruction
system.switch_cpus_1.commit.op_class_0::SimdFloatDiv            0      0.00%     76.53% # Class of committed instruction
system.switch_cpus_1.commit.op_class_0::SimdFloatMisc            0      0.00%     76.53% # Class of committed instruction
system.switch_cpus_1.commit.op_class_0::SimdFloatMult            0      0.00%     76.53% # Class of committed instruction
system.switch_cpus_1.commit.op_class_0::SimdFloatMultAcc            0      0.00%     76.53% # Class of committed instruction
system.switch_cpus_1.commit.op_class_0::SimdFloatSqrt            0      0.00%     76.53% # Class of committed instruction
system.switch_cpus_1.commit.op_class_0::SimdReduceAdd            0      0.00%     76.53% # Class of committed instruction
system.switch_cpus_1.commit.op_class_0::SimdReduceAlu            0      0.00%     76.53% # Class of committed instruction
system.switch_cpus_1.commit.op_class_0::SimdReduceCmp            0      0.00%     76.53% # Class of committed instruction
system.switch_cpus_1.commit.op_class_0::SimdFloatReduceAdd            0      0.00%     76.53% # Class of committed instruction
system.switch_cpus_1.commit.op_class_0::SimdFloatReduceCmp            0      0.00%     76.53% # Class of committed instruction
system.switch_cpus_1.commit.op_class_0::SimdAes            0      0.00%     76.53% # Class of committed instruction
system.switch_cpus_1.commit.op_class_0::SimdAesMix            0      0.00%     76.53% # Class of committed instruction
system.switch_cpus_1.commit.op_class_0::SimdSha1Hash            0      0.00%     76.53% # Class of committed instruction
system.switch_cpus_1.commit.op_class_0::SimdSha1Hash2            0      0.00%     76.53% # Class of committed instruction
system.switch_cpus_1.commit.op_class_0::SimdSha256Hash            0      0.00%     76.53% # Class of committed instruction
system.switch_cpus_1.commit.op_class_0::SimdSha256Hash2            0      0.00%     76.53% # Class of committed instruction
system.switch_cpus_1.commit.op_class_0::SimdShaSigma2            0      0.00%     76.53% # Class of committed instruction
system.switch_cpus_1.commit.op_class_0::SimdShaSigma3            0      0.00%     76.53% # Class of committed instruction
system.switch_cpus_1.commit.op_class_0::SimdPredAlu            0      0.00%     76.53% # Class of committed instruction
system.switch_cpus_1.commit.op_class_0::MemRead    104027364     17.59%     94.12% # Class of committed instruction
system.switch_cpus_1.commit.op_class_0::MemWrite     34633037      5.86%     99.97% # Class of committed instruction
system.switch_cpus_1.commit.op_class_0::FloatMemRead           34      0.00%     99.97% # Class of committed instruction
system.switch_cpus_1.commit.op_class_0::FloatMemWrite       157080      0.03%    100.00% # Class of committed instruction
system.switch_cpus_1.commit.op_class_0::IprAccess            0      0.00%    100.00% # Class of committed instruction
system.switch_cpus_1.commit.op_class_0::InstPrefetch            0      0.00%    100.00% # Class of committed instruction
system.switch_cpus_1.commit.op_class_0::total    591390458                       # Class of committed instruction
system.switch_cpus_1.commit.refs            138817515                       # Number of memory references committed
system.switch_cpus_1.commit.swp_count               0                       # Number of s/w prefetches committed
system.switch_cpus_1.commit.vec_insts               0                       # Number of committed Vector instructions.
system.switch_cpus_1.committedInsts         349837605                       # Number of Instructions Simulated
system.switch_cpus_1.committedOps           591390458                       # Number of Ops (including micro ops) Simulated
system.switch_cpus_1.cpi                     1.694356                       # CPI: Cycles Per Instruction
system.switch_cpus_1.cpi_total               1.694356                       # CPI: Total CPI of All Threads
system.switch_cpus_1.decode.BlockedCycles    349155037                       # Number of cycles decode is blocked
system.switch_cpus_1.decode.DecodedInsts   1178111933                       # Number of instructions handled by decode
system.switch_cpus_1.decode.IdleCycles       66949584                       # Number of cycles decode is idle
system.switch_cpus_1.decode.RunCycles       134894708                       # Number of cycles decode is running
system.switch_cpus_1.decode.SquashCycles     11027329                       # Number of cycles decode is squashing
system.switch_cpus_1.decode.UnblockCycles     30679016                       # Number of cycles decode is unblocking
system.switch_cpus_1.dtb.rdAccesses         147465380                       # TLB accesses on read requests
system.switch_cpus_1.dtb.rdMisses             1982904                       # TLB misses on read requests
system.switch_cpus_1.dtb.wrAccesses          44961525                       # TLB accesses on write requests
system.switch_cpus_1.dtb.wrMisses              517131                       # TLB misses on write requests
system.switch_cpus_1.fetch.Branches         124840485                       # Number of branches that fetch encountered
system.switch_cpus_1.fetch.CacheLines        83084037                       # Number of cache lines fetched
system.switch_cpus_1.fetch.Cycles           491515925                       # Number of cycles fetch has run and was not squashing or blocked
system.switch_cpus_1.fetch.IcacheSquashes      2533255                       # Number of outstanding Icache misses that were squashed
system.switch_cpus_1.fetch.IcacheWaitRetryStallCycles          153                       # Number of stall cycles due to full MSHR
system.switch_cpus_1.fetch.Insts            770202092                       # Number of instructions fetch has processed
system.switch_cpus_1.fetch.MiscStallCycles          468                       # Number of cycles fetch has spent waiting on interrupts, or bad addresses, or out of MSHRs
system.switch_cpus_1.fetch.PendingTrapStallCycles         6701                       # Number of stall cycles due to pending traps
system.switch_cpus_1.fetch.SquashCycles      22054658                       # Number of cycles fetch has spent squashing
system.switch_cpus_1.fetch.TlbCycles                2                       # Number of cycles fetch has spent waiting for tlb
system.switch_cpus_1.fetch.branchRate        0.210613                       # Number of branch fetches per cycle
system.switch_cpus_1.fetch.icacheStallCycles     90155113                       # Number of cycles fetch is stalled on an Icache miss
system.switch_cpus_1.fetch.predictedBranches     40964825                       # Number of branches that fetch has predicted taken
system.switch_cpus_1.fetch.rate              1.299372                       # Number of inst fetches per cycle
system.switch_cpus_1.fetch.rateDist::samples    592705691                       # Number of instructions fetched each cycle (Total)
system.switch_cpus_1.fetch.rateDist::mean     2.161026                       # Number of instructions fetched each cycle (Total)
system.switch_cpus_1.fetch.rateDist::stdev     3.288329                       # Number of instructions fetched each cycle (Total)
system.switch_cpus_1.fetch.rateDist::underflows            0      0.00%      0.00% # Number of instructions fetched each cycle (Total)
system.switch_cpus_1.fetch.rateDist::0      387828852     65.43%     65.43% # Number of instructions fetched each cycle (Total)
system.switch_cpus_1.fetch.rateDist::1       11907041      2.01%     67.44% # Number of instructions fetched each cycle (Total)
system.switch_cpus_1.fetch.rateDist::2       15115070      2.55%     69.99% # Number of instructions fetched each cycle (Total)
system.switch_cpus_1.fetch.rateDist::3       11611895      1.96%     71.95% # Number of instructions fetched each cycle (Total)
system.switch_cpus_1.fetch.rateDist::4       10087366      1.70%     73.65% # Number of instructions fetched each cycle (Total)
system.switch_cpus_1.fetch.rateDist::5       18130540      3.06%     76.71% # Number of instructions fetched each cycle (Total)
system.switch_cpus_1.fetch.rateDist::6       10821998      1.83%     78.54% # Number of instructions fetched each cycle (Total)
system.switch_cpus_1.fetch.rateDist::7        9678005      1.63%     80.17% # Number of instructions fetched each cycle (Total)
system.switch_cpus_1.fetch.rateDist::8      117524924     19.83%    100.00% # Number of instructions fetched each cycle (Total)
system.switch_cpus_1.fetch.rateDist::overflows            0      0.00%    100.00% # Number of instructions fetched each cycle (Total)
system.switch_cpus_1.fetch.rateDist::min_value            0                       # Number of instructions fetched each cycle (Total)
system.switch_cpus_1.fetch.rateDist::max_value            8                       # Number of instructions fetched each cycle (Total)
system.switch_cpus_1.fetch.rateDist::total    592705691                       # Number of instructions fetched each cycle (Total)
system.switch_cpus_1.fp_regfile_reads          279206                       # number of floating regfile reads
system.switch_cpus_1.fp_regfile_writes          78302                       # number of floating regfile writes
system.switch_cpus_1.idleCycles                 43628                       # Total number of cycles that the CPU has spent unscheduled due to idling
system.switch_cpus_1.iew.branchMispredicts     13219790                       # Number of branch mispredicts detected at execute
system.switch_cpus_1.iew.exec_branches       73858150                       # Number of branches executed
system.switch_cpus_1.iew.exec_nop                   0                       # number of nop insts executed
system.switch_cpus_1.iew.exec_rate           1.426419                       # Inst execution rate
system.switch_cpus_1.iew.exec_refs          195626946                       # number of memory reference insts executed
system.switch_cpus_1.iew.exec_stores         44955192                       # Number of stores executed
system.switch_cpus_1.iew.exec_swp                   0                       # number of swp insts executed
system.switch_cpus_1.iew.iewBlockCycles     134812481                       # Number of cycles IEW is blocking
system.switch_cpus_1.iew.iewDispLoadInsts    181950508                       # Number of dispatched load instructions
system.switch_cpus_1.iew.iewDispNonSpecInsts           71                       # Number of dispatched non-speculative instructions
system.switch_cpus_1.iew.iewDispSquashedInsts       951493                       # Number of squashed instructions skipped by dispatch
system.switch_cpus_1.iew.iewDispStoreInsts     65180577                       # Number of dispatched store instructions
system.switch_cpus_1.iew.iewDispatchedInsts   1015164148                       # Number of instructions dispatched to IQ
system.switch_cpus_1.iew.iewExecLoadInsts    150671754                       # Number of load instructions executed
system.switch_cpus_1.iew.iewExecSquashedInsts     27045771                       # Number of squashed instructions skipped in execute
system.switch_cpus_1.iew.iewExecutedInsts    845508693                       # Number of executed instructions
system.switch_cpus_1.iew.iewIQFullEvents      1178492                       # Number of times the IQ has become full, causing a stall
system.switch_cpus_1.iew.iewIdleCycles              0                       # Number of cycles IEW is idle
system.switch_cpus_1.iew.iewLSQFullEvents     32121414                       # Number of times the LSQ has become full, causing a stall
system.switch_cpus_1.iew.iewSquashCycles     11027329                       # Number of cycles IEW is squashing
system.switch_cpus_1.iew.iewUnblockCycles     34287519                       # Number of cycles IEW is unblocking
system.switch_cpus_1.iew.lsq.thread0.blockedLoads            0                       # Number of blocked loads due to partial load-store forwarding
system.switch_cpus_1.iew.lsq.thread0.cacheBlocked      1006032                       # Number of times an access to memory failed due to the cache being blocked
system.switch_cpus_1.iew.lsq.thread0.forwLoads     13988334                       # Number of loads that had data forwarded from stores
system.switch_cpus_1.iew.lsq.thread0.ignoredResponses        71094                       # Number of memory responses ignored because the instruction is squashed
system.switch_cpus_1.iew.lsq.thread0.invAddrLoads            0                       # Number of loads ignored due to an invalid address
system.switch_cpus_1.iew.lsq.thread0.invAddrSwpfs            0                       # Number of software prefetches ignored due to an invalid address
system.switch_cpus_1.iew.lsq.thread0.memOrderViolation        39992                       # Number of memory ordering violations
system.switch_cpus_1.iew.lsq.thread0.rescheduledLoads        54535                       # Number of loads that were rescheduled
system.switch_cpus_1.iew.lsq.thread0.squashedLoads     77923110                       # Number of loads squashed
system.switch_cpus_1.iew.lsq.thread0.squashedStores     30390460                       # Number of stores squashed
system.switch_cpus_1.iew.memOrderViolationEvents        39992                       # Number of memory order violations
system.switch_cpus_1.iew.predictedNotTakenIncorrect     11902971                       # Number of branches that were predicted not taken incorrectly
system.switch_cpus_1.iew.predictedTakenIncorrect      1316819                       # Number of branches that were predicted taken incorrectly
system.switch_cpus_1.iew.wb_consumers       955181406                       # num instructions consuming a value
system.switch_cpus_1.iew.wb_count           825320395                       # cumulative count of insts written-back
system.switch_cpus_1.iew.wb_fanout           0.664339                       # average fanout of values written-back
system.switch_cpus_1.iew.wb_producers       634564158                       # num instructions producing a value
system.switch_cpus_1.iew.wb_rate             1.392360                       # insts written-back per cycle
system.switch_cpus_1.iew.wb_sent            831116948                       # cumulative count of insts sent to commit
system.switch_cpus_1.int_regfile_reads     1293398525                       # number of integer regfile reads
system.switch_cpus_1.int_regfile_writes     708812316                       # number of integer regfile writes
system.switch_cpus_1.ipc                     0.590195                       # IPC: Instructions Per Cycle
system.switch_cpus_1.ipc_total               0.590195                       # IPC: Total IPC of All Threads
system.switch_cpus_1.iq.FU_type_0::No_OpClass      3056320      0.35%      0.35% # Type of FU issued
system.switch_cpus_1.iq.FU_type_0::IntAlu    663832080     76.08%     76.43% # Type of FU issued
system.switch_cpus_1.iq.FU_type_0::IntMult          368      0.00%     76.43% # Type of FU issued
system.switch_cpus_1.iq.FU_type_0::IntDiv          156      0.00%     76.43% # Type of FU issued
system.switch_cpus_1.iq.FU_type_0::FloatAdd           11      0.00%     76.43% # Type of FU issued
system.switch_cpus_1.iq.FU_type_0::FloatCmp            0      0.00%     76.43% # Type of FU issued
system.switch_cpus_1.iq.FU_type_0::FloatCvt         6524      0.00%     76.43% # Type of FU issued
system.switch_cpus_1.iq.FU_type_0::FloatMult            0      0.00%     76.43% # Type of FU issued
system.switch_cpus_1.iq.FU_type_0::FloatMultAcc            0      0.00%     76.43% # Type of FU issued
system.switch_cpus_1.iq.FU_type_0::FloatDiv            0      0.00%     76.43% # Type of FU issued
system.switch_cpus_1.iq.FU_type_0::FloatMisc            0      0.00%     76.43% # Type of FU issued
system.switch_cpus_1.iq.FU_type_0::FloatSqrt            0      0.00%     76.43% # Type of FU issued
system.switch_cpus_1.iq.FU_type_0::SimdAdd            0      0.00%     76.43% # Type of FU issued
system.switch_cpus_1.iq.FU_type_0::SimdAddAcc            0      0.00%     76.43% # Type of FU issued
system.switch_cpus_1.iq.FU_type_0::SimdAlu           44      0.00%     76.43% # Type of FU issued
system.switch_cpus_1.iq.FU_type_0::SimdCmp            0      0.00%     76.43% # Type of FU issued
system.switch_cpus_1.iq.FU_type_0::SimdCvt           66      0.00%     76.43% # Type of FU issued
system.switch_cpus_1.iq.FU_type_0::SimdMisc       104063      0.01%     76.44% # Type of FU issued
system.switch_cpus_1.iq.FU_type_0::SimdMult            0      0.00%     76.44% # Type of FU issued
system.switch_cpus_1.iq.FU_type_0::SimdMultAcc            0      0.00%     76.44% # Type of FU issued
system.switch_cpus_1.iq.FU_type_0::SimdShift            0      0.00%     76.44% # Type of FU issued
system.switch_cpus_1.iq.FU_type_0::SimdShiftAcc            0      0.00%     76.44% # Type of FU issued
system.switch_cpus_1.iq.FU_type_0::SimdDiv            0      0.00%     76.44% # Type of FU issued
system.switch_cpus_1.iq.FU_type_0::SimdSqrt            0      0.00%     76.44% # Type of FU issued
system.switch_cpus_1.iq.FU_type_0::SimdFloatAdd            0      0.00%     76.44% # Type of FU issued
system.switch_cpus_1.iq.FU_type_0::SimdFloatAlu            0      0.00%     76.44% # Type of FU issued
system.switch_cpus_1.iq.FU_type_0::SimdFloatCmp            0      0.00%     76.44% # Type of FU issued
system.switch_cpus_1.iq.FU_type_0::SimdFloatCvt        39746      0.00%     76.45% # Type of FU issued
system.switch_cpus_1.iq.FU_type_0::SimdFloatDiv            0      0.00%     76.45% # Type of FU issued
system.switch_cpus_1.iq.FU_type_0::SimdFloatMisc            0      0.00%     76.45% # Type of FU issued
system.switch_cpus_1.iq.FU_type_0::SimdFloatMult            0      0.00%     76.45% # Type of FU issued
system.switch_cpus_1.iq.FU_type_0::SimdFloatMultAcc            0      0.00%     76.45% # Type of FU issued
system.switch_cpus_1.iq.FU_type_0::SimdFloatSqrt            0      0.00%     76.45% # Type of FU issued
system.switch_cpus_1.iq.FU_type_0::SimdReduceAdd            0      0.00%     76.45% # Type of FU issued
system.switch_cpus_1.iq.FU_type_0::SimdReduceAlu            0      0.00%     76.45% # Type of FU issued
system.switch_cpus_1.iq.FU_type_0::SimdReduceCmp            0      0.00%     76.45% # Type of FU issued
system.switch_cpus_1.iq.FU_type_0::SimdFloatReduceAdd            0      0.00%     76.45% # Type of FU issued
system.switch_cpus_1.iq.FU_type_0::SimdFloatReduceCmp            0      0.00%     76.45% # Type of FU issued
system.switch_cpus_1.iq.FU_type_0::SimdAes            0      0.00%     76.45% # Type of FU issued
system.switch_cpus_1.iq.FU_type_0::SimdAesMix            0      0.00%     76.45% # Type of FU issued
system.switch_cpus_1.iq.FU_type_0::SimdSha1Hash            0      0.00%     76.45% # Type of FU issued
system.switch_cpus_1.iq.FU_type_0::SimdSha1Hash2            0      0.00%     76.45% # Type of FU issued
system.switch_cpus_1.iq.FU_type_0::SimdSha256Hash            0      0.00%     76.45% # Type of FU issued
system.switch_cpus_1.iq.FU_type_0::SimdSha256Hash2            0      0.00%     76.45% # Type of FU issued
system.switch_cpus_1.iq.FU_type_0::SimdShaSigma2            0      0.00%     76.45% # Type of FU issued
system.switch_cpus_1.iq.FU_type_0::SimdShaSigma3            0      0.00%     76.45% # Type of FU issued
system.switch_cpus_1.iq.FU_type_0::SimdPredAlu            0      0.00%     76.45% # Type of FU issued
system.switch_cpus_1.iq.FU_type_0::MemRead    158121252     18.12%     94.57% # Type of FU issued
system.switch_cpus_1.iq.FU_type_0::MemWrite     47236511      5.41%     99.98% # Type of FU issued
system.switch_cpus_1.iq.FU_type_0::FloatMemRead           51      0.00%     99.98% # Type of FU issued
system.switch_cpus_1.iq.FU_type_0::FloatMemWrite       157272      0.02%    100.00% # Type of FU issued
system.switch_cpus_1.iq.FU_type_0::IprAccess            0      0.00%    100.00% # Type of FU issued
system.switch_cpus_1.iq.FU_type_0::InstPrefetch            0      0.00%    100.00% # Type of FU issued
system.switch_cpus_1.iq.FU_type_0::total    872554464                       # Type of FU issued
system.switch_cpus_1.iq.fp_alu_accesses        307879                       # Number of floating point alu accesses
system.switch_cpus_1.iq.fp_inst_queue_reads       619301                       # Number of floating instruction queue reads
system.switch_cpus_1.iq.fp_inst_queue_wakeup_accesses       241706                       # Number of floating instruction queue wakeup accesses
system.switch_cpus_1.iq.fp_inst_queue_writes       956582                       # Number of floating instruction queue writes
system.switch_cpus_1.iq.fu_busy_cnt           9463479                       # FU busy when requested
system.switch_cpus_1.iq.fu_busy_rate         0.010846                       # FU busy rate (busy events/executed inst)
system.switch_cpus_1.iq.fu_full::No_OpClass            0      0.00%      0.00% # attempts to use FU when none available
system.switch_cpus_1.iq.fu_full::IntAlu       7446316     78.68%     78.68% # attempts to use FU when none available
system.switch_cpus_1.iq.fu_full::IntMult            0      0.00%     78.68% # attempts to use FU when none available
system.switch_cpus_1.iq.fu_full::IntDiv             0      0.00%     78.68% # attempts to use FU when none available
system.switch_cpus_1.iq.fu_full::FloatAdd            0      0.00%     78.68% # attempts to use FU when none available
system.switch_cpus_1.iq.fu_full::FloatCmp            0      0.00%     78.68% # attempts to use FU when none available
system.switch_cpus_1.iq.fu_full::FloatCvt            5      0.00%     78.68% # attempts to use FU when none available
system.switch_cpus_1.iq.fu_full::FloatMult            0      0.00%     78.68% # attempts to use FU when none available
system.switch_cpus_1.iq.fu_full::FloatMultAcc            0      0.00%     78.68% # attempts to use FU when none available
system.switch_cpus_1.iq.fu_full::FloatDiv            0      0.00%     78.68% # attempts to use FU when none available
system.switch_cpus_1.iq.fu_full::FloatMisc            0      0.00%     78.68% # attempts to use FU when none available
system.switch_cpus_1.iq.fu_full::FloatSqrt            0      0.00%     78.68% # attempts to use FU when none available
system.switch_cpus_1.iq.fu_full::SimdAdd            0      0.00%     78.68% # attempts to use FU when none available
system.switch_cpus_1.iq.fu_full::SimdAddAcc            0      0.00%     78.68% # attempts to use FU when none available
system.switch_cpus_1.iq.fu_full::SimdAlu            1      0.00%     78.68% # attempts to use FU when none available
system.switch_cpus_1.iq.fu_full::SimdCmp            0      0.00%     78.68% # attempts to use FU when none available
system.switch_cpus_1.iq.fu_full::SimdCvt            3      0.00%     78.68% # attempts to use FU when none available
system.switch_cpus_1.iq.fu_full::SimdMisc            0      0.00%     78.68% # attempts to use FU when none available
system.switch_cpus_1.iq.fu_full::SimdMult            0      0.00%     78.68% # attempts to use FU when none available
system.switch_cpus_1.iq.fu_full::SimdMultAcc            0      0.00%     78.68% # attempts to use FU when none available
system.switch_cpus_1.iq.fu_full::SimdShift            0      0.00%     78.68% # attempts to use FU when none available
system.switch_cpus_1.iq.fu_full::SimdShiftAcc            0      0.00%     78.68% # attempts to use FU when none available
system.switch_cpus_1.iq.fu_full::SimdDiv            0      0.00%     78.68% # attempts to use FU when none available
system.switch_cpus_1.iq.fu_full::SimdSqrt            0      0.00%     78.68% # attempts to use FU when none available
system.switch_cpus_1.iq.fu_full::SimdFloatAdd            0      0.00%     78.68% # attempts to use FU when none available
system.switch_cpus_1.iq.fu_full::SimdFloatAlu            0      0.00%     78.68% # attempts to use FU when none available
system.switch_cpus_1.iq.fu_full::SimdFloatCmp            0      0.00%     78.68% # attempts to use FU when none available
system.switch_cpus_1.iq.fu_full::SimdFloatCvt            0      0.00%     78.68% # attempts to use FU when none available
system.switch_cpus_1.iq.fu_full::SimdFloatDiv            0      0.00%     78.68% # attempts to use FU when none available
system.switch_cpus_1.iq.fu_full::SimdFloatMisc            0      0.00%     78.68% # attempts to use FU when none available
system.switch_cpus_1.iq.fu_full::SimdFloatMult            0      0.00%     78.68% # attempts to use FU when none available
system.switch_cpus_1.iq.fu_full::SimdFloatMultAcc            0      0.00%     78.68% # attempts to use FU when none available
system.switch_cpus_1.iq.fu_full::SimdFloatSqrt            0      0.00%     78.68% # attempts to use FU when none available
system.switch_cpus_1.iq.fu_full::SimdReduceAdd            0      0.00%     78.68% # attempts to use FU when none available
system.switch_cpus_1.iq.fu_full::SimdReduceAlu            0      0.00%     78.68% # attempts to use FU when none available
system.switch_cpus_1.iq.fu_full::SimdReduceCmp            0      0.00%     78.68% # attempts to use FU when none available
system.switch_cpus_1.iq.fu_full::SimdFloatReduceAdd            0      0.00%     78.68% # attempts to use FU when none available
system.switch_cpus_1.iq.fu_full::SimdFloatReduceCmp            0      0.00%     78.68% # attempts to use FU when none available
system.switch_cpus_1.iq.fu_full::SimdAes            0      0.00%     78.68% # attempts to use FU when none available
system.switch_cpus_1.iq.fu_full::SimdAesMix            0      0.00%     78.68% # attempts to use FU when none available
system.switch_cpus_1.iq.fu_full::SimdSha1Hash            0      0.00%     78.68% # attempts to use FU when none available
system.switch_cpus_1.iq.fu_full::SimdSha1Hash2            0      0.00%     78.68% # attempts to use FU when none available
system.switch_cpus_1.iq.fu_full::SimdSha256Hash            0      0.00%     78.68% # attempts to use FU when none available
system.switch_cpus_1.iq.fu_full::SimdSha256Hash2            0      0.00%     78.68% # attempts to use FU when none available
system.switch_cpus_1.iq.fu_full::SimdShaSigma2            0      0.00%     78.68% # attempts to use FU when none available
system.switch_cpus_1.iq.fu_full::SimdShaSigma3            0      0.00%     78.68% # attempts to use FU when none available
system.switch_cpus_1.iq.fu_full::SimdPredAlu            0      0.00%     78.68% # attempts to use FU when none available
system.switch_cpus_1.iq.fu_full::MemRead      1945501     20.56%     99.24% # attempts to use FU when none available
system.switch_cpus_1.iq.fu_full::MemWrite        71597      0.76%    100.00% # attempts to use FU when none available
system.switch_cpus_1.iq.fu_full::FloatMemRead            1      0.00%    100.00% # attempts to use FU when none available
system.switch_cpus_1.iq.fu_full::FloatMemWrite           55      0.00%    100.00% # attempts to use FU when none available
system.switch_cpus_1.iq.fu_full::IprAccess            0      0.00%    100.00% # attempts to use FU when none available
system.switch_cpus_1.iq.fu_full::InstPrefetch            0      0.00%    100.00% # attempts to use FU when none available
system.switch_cpus_1.iq.int_alu_accesses    878653744                       # Number of integer alu accesses
system.switch_cpus_1.iq.int_inst_queue_reads   2348974009                       # Number of integer instruction queue reads
system.switch_cpus_1.iq.int_inst_queue_wakeup_accesses    825078689                       # Number of integer instruction queue wakeup accesses
system.switch_cpus_1.iq.int_inst_queue_writes   1438018776                       # Number of integer instruction queue writes
system.switch_cpus_1.iq.iqInstsAdded       1015163955                       # Number of instructions added to the IQ (excludes non-spec)
system.switch_cpus_1.iq.iqInstsIssued       872554464                       # Number of instructions issued
system.switch_cpus_1.iq.iqNonSpecInstsAdded          193                       # Number of non-speculative instructions added to the IQ
system.switch_cpus_1.iq.iqSquashedInstsExamined    423773689                       # Number of squashed instructions iterated over during squash; mainly for profiling
system.switch_cpus_1.iq.iqSquashedInstsIssued      2315212                       # Number of squashed instructions issued
system.switch_cpus_1.iq.iqSquashedNonSpecRemoved          187                       # Number of squashed non-spec instructions that were removed
system.switch_cpus_1.iq.iqSquashedOperandsExamined    614982497                       # Number of squashed operands that are examined and possibly removed from graph
system.switch_cpus_1.iq.issued_per_cycle::samples    592705691                       # Number of insts issued each cycle
system.switch_cpus_1.iq.issued_per_cycle::mean     1.472155                       # Number of insts issued each cycle
system.switch_cpus_1.iq.issued_per_cycle::stdev     2.122094                       # Number of insts issued each cycle
system.switch_cpus_1.iq.issued_per_cycle::underflows            0      0.00%      0.00% # Number of insts issued each cycle
system.switch_cpus_1.iq.issued_per_cycle::0    331318724     55.90%     55.90% # Number of insts issued each cycle
system.switch_cpus_1.iq.issued_per_cycle::1     60439793     10.20%     66.10% # Number of insts issued each cycle
system.switch_cpus_1.iq.issued_per_cycle::2     51589054      8.70%     74.80% # Number of insts issued each cycle
system.switch_cpus_1.iq.issued_per_cycle::3     37804295      6.38%     81.18% # Number of insts issued each cycle
system.switch_cpus_1.iq.issued_per_cycle::4     36073690      6.09%     87.27% # Number of insts issued each cycle
system.switch_cpus_1.iq.issued_per_cycle::5     29711104      5.01%     92.28% # Number of insts issued each cycle
system.switch_cpus_1.iq.issued_per_cycle::6     24814804      4.19%     96.46% # Number of insts issued each cycle
system.switch_cpus_1.iq.issued_per_cycle::7     13849242      2.34%     98.80% # Number of insts issued each cycle
system.switch_cpus_1.iq.issued_per_cycle::8      7104985      1.20%    100.00% # Number of insts issued each cycle
system.switch_cpus_1.iq.issued_per_cycle::overflows            0      0.00%    100.00% # Number of insts issued each cycle
system.switch_cpus_1.iq.issued_per_cycle::min_value            0                       # Number of insts issued each cycle
system.switch_cpus_1.iq.issued_per_cycle::max_value            8                       # Number of insts issued each cycle
system.switch_cpus_1.iq.issued_per_cycle::total    592705691                       # Number of insts issued each cycle
system.switch_cpus_1.iq.rate                 1.472046                       # Inst issue rate
system.switch_cpus_1.iq.vec_alu_accesses            0                       # Number of vector alu accesses
system.switch_cpus_1.iq.vec_inst_queue_reads            0                       # Number of vector instruction queue reads
system.switch_cpus_1.iq.vec_inst_queue_wakeup_accesses            0                       # Number of vector instruction queue wakeup accesses
system.switch_cpus_1.iq.vec_inst_queue_writes            0                       # Number of vector instruction queue writes
system.switch_cpus_1.itb.rdAccesses                 0                       # TLB accesses on read requests
system.switch_cpus_1.itb.rdMisses                   0                       # TLB misses on read requests
system.switch_cpus_1.itb.wrAccesses          83084679                       # TLB accesses on write requests
system.switch_cpus_1.itb.wrMisses                 706                       # TLB misses on write requests
system.switch_cpus_1.memDep0.conflictingLoads     30775574                       # Number of conflicting loads.
system.switch_cpus_1.memDep0.conflictingStores     18007342                       # Number of conflicting stores.
system.switch_cpus_1.memDep0.insertedLoads    181950508                       # Number of loads inserted to the mem dependence unit.
system.switch_cpus_1.memDep0.insertedStores     65180577                       # Number of stores inserted to the mem dependence unit.
system.switch_cpus_1.misc_regfile_reads     361526852                       # number of misc regfile reads
system.switch_cpus_1.numCycles              592749319                       # number of cpu cycles simulated
system.switch_cpus_1.numWorkItemsCompleted            0                       # number of work items this cpu completed
system.switch_cpus_1.numWorkItemsStarted            0                       # number of work items this cpu started
system.switch_cpus_1.rename.BlockCycles     222720675                       # Number of cycles rename is blocking
system.switch_cpus_1.rename.CommittedMaps    743940187                       # Number of HB maps that are committed
system.switch_cpus_1.rename.IQFullEvents     46299504                       # Number of times rename has blocked due to IQ full
system.switch_cpus_1.rename.IdleCycles       83098666                       # Number of cycles rename is idle
system.switch_cpus_1.rename.LQFullEvents     19465349                       # Number of times rename has blocked due to LQ full
system.switch_cpus_1.rename.ROBFullEvents      4270267                       # Number of times rename has blocked due to ROB full
system.switch_cpus_1.rename.RenameLookups   2849727376                       # Number of register rename lookups that rename has made
system.switch_cpus_1.rename.RenamedInsts   1120854792                       # Number of instructions processed by rename
system.switch_cpus_1.rename.RenamedOperands   1361988366                       # Number of destination operands rename has renamed
system.switch_cpus_1.rename.RunCycles       146812131                       # Number of cycles rename is running
system.switch_cpus_1.rename.SQFullEvents     55765740                       # Number of times rename has blocked due to SQ full
system.switch_cpus_1.rename.SquashCycles     11027329                       # Number of cycles rename is squashing
system.switch_cpus_1.rename.UnblockCycles    129046558                       # Number of cycles rename is unblocking
system.switch_cpus_1.rename.UndoneMaps      618048179                       # Number of HB maps that are undone due to squashing
system.switch_cpus_1.rename.fp_rename_lookups      2381902                       # Number of floating rename lookups
system.switch_cpus_1.rename.int_rename_lookups   1819735113                       # Number of integer rename lookups
system.switch_cpus_1.rename.serializeStallCycles          316                       # count of cycles rename stalled for serializing inst
system.switch_cpus_1.rename.serializingInsts            6                       # count of serializing insts renamed
system.switch_cpus_1.rename.skidInsts       142738692                       # count of insts added to the skid buffer
system.switch_cpus_1.rename.tempSerializingInsts            5                       # count of temporary serializing insts renamed
system.switch_cpus_1.rob.rob_reads         1511017320                       # The number of ROB reads
system.switch_cpus_1.rob.rob_writes        2094059895                       # The number of ROB writes
system.switch_cpus_1.timesIdled                   366                       # Number of times that the entire CPU went into an idle state and unscheduled itself
system.tol2bus.snoop_filter.hit_multi_requests            0                       # Number of requests hitting in the snoop filter with multiple (>1) holders of the requested data.
system.tol2bus.snoop_filter.hit_multi_snoops            0                       # Number of snoops hitting in the snoop filter with multiple (>1) holders of the requested data.
system.tol2bus.snoop_filter.hit_single_requests      5769390                       # Number of requests hitting in the snoop filter with a single holder of the requested data.
system.tol2bus.snoop_filter.hit_single_snoops         2751                       # Number of snoops hitting in the snoop filter with a single holder of the requested data.
system.tol2bus.snoop_filter.tot_requests     11338042                       # Total number of requests made to the snoop filter.
system.tol2bus.snoop_filter.tot_snoops           2751                       # Total number of snoops made to the snoop filter.
system.tol3bus.snoop_filter.hit_multi_requests            0                       # Number of requests hitting in the snoop filter with multiple (>1) holders of the requested data.
system.tol3bus.snoop_filter.hit_multi_snoops            0                       # Number of snoops hitting in the snoop filter with multiple (>1) holders of the requested data.
system.tol3bus.snoop_filter.hit_single_requests      5002776                       # Number of requests hitting in the snoop filter with a single holder of the requested data.
system.tol3bus.snoop_filter.hit_single_snoops        44439                       # Number of snoops hitting in the snoop filter with a single holder of the requested data.
system.tol3bus.snoop_filter.tot_requests      9918969                       # Total number of requests made to the snoop filter.
system.tol3bus.snoop_filter.tot_snoops          44439                       # Total number of snoops made to the snoop filter.
system.membus.trans_dist::ReadResp             557247                       # Transaction distribution
system.membus.trans_dist::WritebackDirty       457310                       # Transaction distribution
system.membus.trans_dist::CleanEvict           420946                       # Transaction distribution
system.membus.trans_dist::UpgradeReq                6                       # Transaction distribution
system.membus.trans_dist::ReadExReq            321030                       # Transaction distribution
system.membus.trans_dist::ReadExResp           321030                       # Transaction distribution
system.membus.trans_dist::ReadSharedReq        557247                       # Transaction distribution
system.membus.pkt_count_system.l3.mem_side::system.mem_ctrls.port      2634816                       # Packet count per connected master and slave (bytes)
system.membus.pkt_count_system.l3.mem_side::total      2634816                       # Packet count per connected master and slave (bytes)
system.membus.pkt_count::total                2634816                       # Packet count per connected master and slave (bytes)
system.membus.pkt_size_system.l3.mem_side::system.mem_ctrls.port     85477568                       # Cumulative packet size per connected master and slave (bytes)
system.membus.pkt_size_system.l3.mem_side::total     85477568                       # Cumulative packet size per connected master and slave (bytes)
system.membus.pkt_size::total                85477568                       # Cumulative packet size per connected master and slave (bytes)
system.membus.snoops                                0                       # Total snoops (count)
system.membus.snoopTraffic                          0                       # Total snoop traffic (bytes)
system.membus.snoop_fanout::samples            878283                       # Request fanout histogram
system.membus.snoop_fanout::mean                    0                       # Request fanout histogram
system.membus.snoop_fanout::stdev                   0                       # Request fanout histogram
system.membus.snoop_fanout::underflows              0      0.00%      0.00% # Request fanout histogram
system.membus.snoop_fanout::0                  878283    100.00%    100.00% # Request fanout histogram
system.membus.snoop_fanout::1                       0      0.00%    100.00% # Request fanout histogram
system.membus.snoop_fanout::overflows               0      0.00%    100.00% # Request fanout histogram
system.membus.snoop_fanout::min_value               0                       # Request fanout histogram
system.membus.snoop_fanout::max_value               0                       # Request fanout histogram
system.membus.snoop_fanout::total              878283                       # Request fanout histogram
system.membus.reqLayer2.occupancy          3828972000                       # Layer occupancy (ticks)
system.membus.reqLayer2.utilization               1.3                       # Layer utilization (%)
system.membus.respLayer1.occupancy         4758539750                       # Layer occupancy (ticks)
system.membus.respLayer1.utilization              1.6                       # Layer utilization (%)
system.membus.power_state.pwrStateResidencyTicks::UNDEFINED 1433953694000                       # Cumulative time (in ticks) in various power states
system.switch_cpus_1.dtb.walker.power_state.pwrStateResidencyTicks::UNDEFINED 1433953694000                       # Cumulative time (in ticks) in various power states
system.switch_cpus_1.itb.walker.power_state.pwrStateResidencyTicks::UNDEFINED 1433953694000                       # Cumulative time (in ticks) in various power states
system.switch_cpus_1.power_state.pwrStateResidencyTicks::OFF 1433953694000                       # Cumulative time (in ticks) in various power states
system.switch_cpus.dtb.walker.power_state.pwrStateResidencyTicks::UNDEFINED 1433953694000                       # Cumulative time (in ticks) in various power states
system.switch_cpus.itb.walker.power_state.pwrStateResidencyTicks::UNDEFINED 1433953694000                       # Cumulative time (in ticks) in various power states
system.switch_cpus.power_state.numTransitions            1                       # Number of power state transitions
system.switch_cpus.power_state.pwrStateResidencyTicks::OFF 1433953694000                       # Cumulative time (in ticks) in various power states
system.tol2bus.trans_dist::ReadResp           4633900                       # Transaction distribution
system.tol2bus.trans_dist::WritebackDirty      1916846                       # Transaction distribution
system.tol2bus.trans_dist::WritebackClean          639                       # Transaction distribution
system.tol2bus.trans_dist::CleanEvict         4477813                       # Transaction distribution
system.tol2bus.trans_dist::UpgradeReq          200733                       # Transaction distribution
system.tol2bus.trans_dist::UpgradeResp         200733                       # Transaction distribution
system.tol2bus.trans_dist::ReadExReq           934754                       # Transaction distribution
system.tol2bus.trans_dist::ReadExResp          934754                       # Transaction distribution
system.tol2bus.trans_dist::ReadCleanReq       4633901                       # Transaction distribution
system.tol2bus.pkt_count_system.cpu.icache.mem_side::system.l2.cpu_side         1918                       # Packet count per connected master and slave (bytes)
system.tol2bus.pkt_count_system.cpu.dcache.mem_side::system.l2.cpu_side     17105511                       # Packet count per connected master and slave (bytes)
system.tol2bus.pkt_count::total              17107429                       # Packet count per connected master and slave (bytes)
system.tol2bus.pkt_size_system.cpu.icache.mem_side::system.l2.cpu_side        81792                       # Cumulative packet size per connected master and slave (bytes)
system.tol2bus.pkt_size_system.cpu.dcache.mem_side::system.l2.cpu_side    428996928                       # Cumulative packet size per connected master and slave (bytes)
system.tol2bus.pkt_size::total              429078720                       # Cumulative packet size per connected master and slave (bytes)
system.tol2bus.snoops                          826644                       # Total snoops (count)
system.tol2bus.snoopTraffic                  50034176                       # Total snoop traffic (bytes)
system.tol2bus.snoop_fanout::samples          6596032                       # Request fanout histogram
system.tol2bus.snoop_fanout::mean            0.000418                       # Request fanout histogram
system.tol2bus.snoop_fanout::stdev           0.020429                       # Request fanout histogram
system.tol2bus.snoop_fanout::underflows             0      0.00%      0.00% # Request fanout histogram
system.tol2bus.snoop_fanout::0                6593278     99.96%     99.96% # Request fanout histogram
system.tol2bus.snoop_fanout::1                   2754      0.04%    100.00% # Request fanout histogram
system.tol2bus.snoop_fanout::2                      0      0.00%    100.00% # Request fanout histogram
system.tol2bus.snoop_fanout::3                      0      0.00%    100.00% # Request fanout histogram
system.tol2bus.snoop_fanout::4                      0      0.00%    100.00% # Request fanout histogram
system.tol2bus.snoop_fanout::overflows              0      0.00%    100.00% # Request fanout histogram
system.tol2bus.snoop_fanout::min_value              0                       # Request fanout histogram
system.tol2bus.snoop_fanout::max_value              1                       # Request fanout histogram
system.tol2bus.snoop_fanout::total            6596032                       # Request fanout histogram
system.tol2bus.reqLayer0.occupancy         6804722000                       # Layer occupancy (ticks)
system.tol2bus.reqLayer0.utilization              2.3                       # Layer utilization (%)
system.tol2bus.respLayer1.occupancy        8452389499                       # Layer occupancy (ticks)
system.tol2bus.respLayer1.utilization             2.9                       # Layer utilization (%)
system.tol2bus.respLayer0.occupancy            958500                       # Layer occupancy (ticks)
system.tol2bus.respLayer0.utilization             0.0                       # Layer utilization (%)
system.tol2bus.power_state.pwrStateResidencyTicks::UNDEFINED 1433953694000                       # Cumulative time (in ticks) in various power states
system.voltage_domain.voltage                       1                       # Voltage in Volts
system.clk_domain.clock                          1000                       # Clock period in ticks
system.l2.demand_hits::.switch_cpus_1.inst           58                       # number of demand (read+write) hits
system.l2.demand_hits::.switch_cpus_1.data       652400                       # number of demand (read+write) hits
system.l2.demand_hits::total                   652458                       # number of demand (read+write) hits
system.l2.overall_hits::.switch_cpus_1.inst           58                       # number of overall hits
system.l2.overall_hits::.switch_cpus_1.data       652400                       # number of overall hits
system.l2.overall_hits::total                  652458                       # number of overall hits
system.l2.demand_misses::.switch_cpus_1.inst          582                       # number of demand (read+write) misses
system.l2.demand_misses::.switch_cpus_1.data      4915615                       # number of demand (read+write) misses
system.l2.demand_misses::total                4916197                       # number of demand (read+write) misses
system.l2.overall_misses::.switch_cpus_1.inst          582                       # number of overall misses
system.l2.overall_misses::.switch_cpus_1.data      4915615                       # number of overall misses
system.l2.overall_misses::total               4916197                       # number of overall misses
system.l2.demand_miss_latency::.switch_cpus_1.inst     58077000                       # number of demand (read+write) miss cycles
system.l2.demand_miss_latency::.switch_cpus_1.data 206191743500                       # number of demand (read+write) miss cycles
system.l2.demand_miss_latency::total     206249820500                       # number of demand (read+write) miss cycles
system.l2.overall_miss_latency::.switch_cpus_1.inst     58077000                       # number of overall miss cycles
system.l2.overall_miss_latency::.switch_cpus_1.data 206191743500                       # number of overall miss cycles
system.l2.overall_miss_latency::total    206249820500                       # number of overall miss cycles
system.l2.demand_accesses::.switch_cpus_1.inst          640                       # number of demand (read+write) accesses
system.l2.demand_accesses::.switch_cpus_1.data      5568015                       # number of demand (read+write) accesses
system.l2.demand_accesses::total              5568655                       # number of demand (read+write) accesses
system.l2.overall_accesses::.switch_cpus_1.inst          640                       # number of overall (read+write) accesses
system.l2.overall_accesses::.switch_cpus_1.data      5568015                       # number of overall (read+write) accesses
system.l2.overall_accesses::total             5568655                       # number of overall (read+write) accesses
system.l2.demand_miss_rate::.switch_cpus_1.inst     0.909375                       # miss rate for demand accesses
[...]
system.cpu.dcache.overall_misses::total      24170286                       # number of overall misses
system.cpu.dcache.demand_miss_latency::.switch_cpus.data  23062091000                       # number of demand (read+write) miss cycles
system.cpu.dcache.demand_miss_latency::.switch_cpus_1.data 358275519375                       # number of demand (read+write) miss cycles
system.cpu.dcache.demand_miss_latency::total 381337610375                       # number of demand (read+write) miss cycles
system.cpu.dcache.overall_miss_latency::.switch_cpus.data  23062091000                       # number of overall miss cycles
system.cpu.dcache.overall_miss_latency::.switch_cpus_1.data 358275519375                       # number of overall miss cycles
system.cpu.dcache.overall_miss_latency::total 381337610375                       # number of overall miss cycles
system.cpu.dcache.demand_accesses::.cpu.data    433795338                       # number of demand (read+write) accesses
system.cpu.dcache.demand_accesses::.switch_cpus.data     21480195                       # number of demand (read+write) accesses
system.cpu.dcache.demand_accesses::.switch_cpus_1.data    168159352                       # number of demand (read+write) accesses
system.cpu.dcache.demand_accesses::total    623434885                       # number of demand (read+write) accesses
system.cpu.dcache.overall_accesses::.cpu.data    433795338                       # number of overall (read+write) accesses
system.cpu.dcache.overall_accesses::.switch_cpus.data     21480195                       # number of overall (read+write) accesses
system.cpu.dcache.overall_accesses::.switch_cpus_1.data    168159352                       # number of overall (read+write) accesses
system.cpu.dcache.overall_accesses::total    623434885                       # number of overall (read+write) accesses
system.cpu.dcache.demand_miss_rate::.cpu.data     0.034797                       # miss rate for demand accesses
system.cpu.dcache.demand_miss_rate::.switch_cpus.data     0.027707                       # miss rate for demand accesses
system.cpu.dcache.demand_miss_rate::.switch_cpus_1.data     0.050431                       # miss rate for demand accesses
system.cpu.dcache.demand_miss_rate::total     0.038770                       # miss rate for demand accesses
system.cpu.dcache.overall_miss_rate::.cpu.data     0.034797                       # miss rate for overall accesses
system.cpu.dcache.overall_miss_rate::.switch_cpus.data     0.027707                       # miss rate for overall accesses
system.cpu.dcache.overall_miss_rate::.switch_cpus_1.data     0.050431                       # miss rate for overall accesses
system.cpu.dcache.overall_miss_rate::total     0.038770                       # miss rate for overall accesses
system.cpu.dcache.demand_avg_miss_latency::.switch_cpus.data 38750.438549                       # average overall miss latency
system.cpu.dcache.demand_avg_miss_latency::.switch_cpus_1.data 42247.125115                       # average overall miss latency
system.cpu.dcache.demand_avg_miss_latency::total 15777.124457                       # average overall miss latency
system.cpu.dcache.overall_avg_miss_latency::.switch_cpus.data 38750.438549                       # average overall miss latency
system.cpu.dcache.overall_avg_miss_latency::.switch_cpus_1.data 42247.125115                       # average overall miss latency
system.cpu.dcache.overall_avg_miss_latency::total 15777.124457                       # average overall miss latency
system.cpu.dcache.blocked_cycles::no_mshrs     22807536                       # number of cycles access was blocked
system.cpu.dcache.blocked_cycles::no_targets          663                       # number of cycles access was blocked
system.cpu.dcache.blocked::no_mshrs           1127007                       # number of cycles access was blocked
system.cpu.dcache.blocked::no_targets               9                       # number of cycles access was blocked
system.cpu.dcache.avg_blocked_cycles::no_mshrs    20.237262                       # average number of cycles each access was blocked
system.cpu.dcache.avg_blocked_cycles::no_targets    73.666667                       # average number of cycles each access was blocked
system.cpu.dcache.writebacks::.writebacks      5763481                       # number of writebacks
system.cpu.dcache.writebacks::total           5763481                       # number of writebacks
system.cpu.dcache.demand_mshr_hits::.switch_cpus_1.data      2711735                       # number of demand (read+write) MSHR hits
system.cpu.dcache.demand_mshr_hits::total      2711735                       # number of demand (read+write) MSHR hits
system.cpu.dcache.overall_mshr_hits::.switch_cpus_1.data      2711735                       # number of overall MSHR hits
system.cpu.dcache.overall_mshr_hits::total      2711735                       # number of overall MSHR hits
system.cpu.dcache.demand_mshr_misses::.switch_cpus.data       595144                       # number of demand (read+write) MSHR misses
system.cpu.dcache.demand_mshr_misses::.switch_cpus_1.data      5768736                       # number of demand (read+write) MSHR misses
system.cpu.dcache.demand_mshr_misses::total      6363880                       # number of demand (read+write) MSHR misses
system.cpu.dcache.overall_mshr_misses::.switch_cpus.data       595144                       # number of overall MSHR misses
system.cpu.dcache.overall_mshr_misses::.switch_cpus_1.data      5768736                       # number of overall MSHR misses
system.cpu.dcache.overall_mshr_misses::total      6363880                       # number of overall MSHR misses
system.cpu.dcache.demand_mshr_miss_latency::.switch_cpus.data  22466947000                       # number of demand (read+write) MSHR miss cycles
system.cpu.dcache.demand_mshr_miss_latency::.switch_cpus_1.data 225039991375                       # number of demand (read+write) MSHR miss cycles
system.cpu.dcache.demand_mshr_miss_latency::total 247506938375                       # number of demand (read+write) MSHR miss cycles
system.cpu.dcache.overall_mshr_miss_latency::.switch_cpus.data  22466947000                       # number of overall MSHR miss cycles
system.cpu.dcache.overall_mshr_miss_latency::.switch_cpus_1.data 225039991375                       # number of overall MSHR miss cycles
system.cpu.dcache.overall_mshr_miss_latency::total 247506938375                       # number of overall MSHR miss cycles
system.cpu.dcache.demand_mshr_miss_rate::.switch_cpus.data     0.027707                       # mshr miss rate for demand accesses
system.cpu.dcache.demand_mshr_miss_rate::.switch_cpus_1.data     0.034305                       # mshr miss rate for demand accesses
system.cpu.dcache.demand_mshr_miss_rate::total     0.010208                       # mshr miss rate for demand accesses
system.cpu.dcache.overall_mshr_miss_rate::.switch_cpus.data     0.027707                       # mshr miss rate for overall accesses
system.cpu.dcache.overall_mshr_miss_rate::.switch_cpus_1.data     0.034305                       # mshr miss rate for overall accesses
system.cpu.dcache.overall_mshr_miss_rate::total     0.010208                       # mshr miss rate for overall accesses
system.cpu.dcache.demand_avg_mshr_miss_latency::.switch_cpus.data 37750.438549                       # average overall mshr miss latency
system.cpu.dcache.demand_avg_mshr_miss_latency::.switch_cpus_1.data 39010.277360                       # average overall mshr miss latency
system.cpu.dcache.demand_avg_mshr_miss_latency::total 38892.458433                       # average overall mshr miss latency
system.cpu.dcache.overall_avg_mshr_miss_latency::.switch_cpus.data 37750.438549                       # average overall mshr miss latency
system.cpu.dcache.overall_avg_mshr_miss_latency::.switch_cpus_1.data 39010.277360                       # average overall mshr miss latency
system.cpu.dcache.overall_avg_mshr_miss_latency::total 38892.458433                       # average overall mshr miss latency
system.cpu.dcache.replacements               19761638                       # number of replacements
system.cpu.dcache.ReadReq_hits::.cpu.data    311146590                       # number of ReadReq hits
system.cpu.dcache.ReadReq_hits::.switch_cpus.data     17715663                       # number of ReadReq hits
system.cpu.dcache.ReadReq_hits::.switch_cpus_1.data    126018005                       # number of ReadReq hits
system.cpu.dcache.ReadReq_hits::total       454880258                       # number of ReadReq hits
system.cpu.dcache.ReadReq_misses::.cpu.data     10609375                       # number of ReadReq misses
system.cpu.dcache.ReadReq_misses::.switch_cpus.data       451998                       # number of ReadReq misses
system.cpu.dcache.ReadReq_misses::.switch_cpus_1.data      7344984                       # number of ReadReq misses
system.cpu.dcache.ReadReq_misses::total      18406357                       # number of ReadReq misses
system.cpu.dcache.ReadReq_miss_latency::.switch_cpus.data  16542261500                       # number of ReadReq miss cycles
system.cpu.dcache.ReadReq_miss_latency::.switch_cpus_1.data 306148252500                       # number of ReadReq miss cycles
system.cpu.dcache.ReadReq_miss_latency::total 322690514000                       # number of ReadReq miss cycles
system.cpu.dcache.ReadReq_accesses::.cpu.data    321755965                       # number of ReadReq accesses(hits+misses)
system.cpu.dcache.ReadReq_accesses::.switch_cpus.data     18167661                       # number of ReadReq accesses(hits+misses)
system.cpu.dcache.ReadReq_accesses::.switch_cpus_1.data    133362989                       # number of ReadReq accesses(hits+misses)
system.cpu.dcache.ReadReq_accesses::total    473286615                       # number of ReadReq accesses(hits+misses)
system.cpu.dcache.ReadReq_miss_rate::.cpu.data     0.032973                       # miss rate for ReadReq accesses
system.cpu.dcache.ReadReq_miss_rate::.switch_cpus.data     0.024879                       # miss rate for ReadReq accesses
system.cpu.dcache.ReadReq_miss_rate::.switch_cpus_1.data     0.055075                       # miss rate for ReadReq accesses
system.cpu.dcache.ReadReq_miss_rate::total     0.038891                       # miss rate for ReadReq accesses
system.cpu.dcache.ReadReq_avg_miss_latency::.switch_cpus.data 36598.085611                       # average ReadReq miss latency
system.cpu.dcache.ReadReq_avg_miss_latency::.switch_cpus_1.data 41681.268809                       # average ReadReq miss latency
system.cpu.dcache.ReadReq_avg_miss_latency::total 17531.471002                       # average ReadReq miss latency
system.cpu.dcache.ReadReq_mshr_hits::.switch_cpus_1.data      2711720                       # number of ReadReq MSHR hits
system.cpu.dcache.ReadReq_mshr_hits::total      2711720                       # number of ReadReq MSHR hits
system.cpu.dcache.ReadReq_mshr_misses::.switch_cpus.data       451998                       # number of ReadReq MSHR misses
system.cpu.dcache.ReadReq_mshr_misses::.switch_cpus_1.data      4633264                       # number of ReadReq MSHR misses
system.cpu.dcache.ReadReq_mshr_misses::total      5085262                       # number of ReadReq MSHR misses
system.cpu.dcache.ReadReq_mshr_miss_latency::.switch_cpus.data  16090263500                       # number of ReadReq MSHR miss cycles
system.cpu.dcache.ReadReq_mshr_miss_latency::.switch_cpus_1.data 174048249000                       # number of ReadReq MSHR miss cycles
system.cpu.dcache.ReadReq_mshr_miss_latency::total 190138512500                       # number of ReadReq MSHR miss cycles
system.cpu.dcache.ReadReq_mshr_miss_rate::.switch_cpus.data     0.024879                       # mshr miss rate for ReadReq accesses
system.cpu.dcache.ReadReq_mshr_miss_rate::.switch_cpus_1.data     0.034742                       # mshr miss rate for ReadReq accesses
system.cpu.dcache.ReadReq_mshr_miss_rate::total     0.010745                       # mshr miss rate for ReadReq accesses
system.cpu.dcache.ReadReq_avg_mshr_miss_latency::.switch_cpus.data 35598.085611                       # average ReadReq mshr miss latency
system.cpu.dcache.ReadReq_avg_mshr_miss_latency::.switch_cpus_1.data 37564.932410                       # average ReadReq mshr miss latency
system.cpu.dcache.ReadReq_avg_mshr_miss_latency::total 37390.111365                       # average ReadReq mshr miss latency
system.cpu.dcache.WriteReq_hits::.cpu.data    107554077                       # number of WriteReq hits
system.cpu.dcache.WriteReq_hits::.switch_cpus.data      3169388                       # number of WriteReq hits
system.cpu.dcache.WriteReq_hits::.switch_cpus_1.data     33660876                       # number of WriteReq hits
system.cpu.dcache.WriteReq_hits::total      144384341                       # number of WriteReq hits
system.cpu.dcache.WriteReq_misses::.cpu.data      4485296                       # number of WriteReq misses
system.cpu.dcache.WriteReq_misses::.switch_cpus.data       143146                       # number of WriteReq misses
system.cpu.dcache.WriteReq_misses::.switch_cpus_1.data      1135487                       # number of WriteReq misses
system.cpu.dcache.WriteReq_misses::total      5763929                       # number of WriteReq misses
system.cpu.dcache.WriteReq_miss_latency::.switch_cpus.data   6519829500                       # number of WriteReq miss cycles
system.cpu.dcache.WriteReq_miss_latency::.switch_cpus_1.data  52127266875                       # number of WriteReq miss cycles
system.cpu.dcache.WriteReq_miss_latency::total  58647096375                       # number of WriteReq miss cycles
system.cpu.dcache.WriteReq_accesses::.cpu.data    112039373                       # number of WriteReq accesses(hits+misses)
system.cpu.dcache.WriteReq_accesses::.switch_cpus.data      3312534                       # number of WriteReq accesses(hits+misses)
system.cpu.dcache.WriteReq_accesses::.switch_cpus_1.data     34796363                       # number of WriteReq accesses(hits+misses)
system.cpu.dcache.WriteReq_accesses::total    150148270                       # number of WriteReq accesses(hits+misses)
system.cpu.dcache.WriteReq_miss_rate::.cpu.data     0.040033                       # miss rate for WriteReq accesses
system.cpu.dcache.WriteReq_miss_rate::.switch_cpus.data     0.043213                       # miss rate for WriteReq accesses
system.cpu.dcache.WriteReq_miss_rate::.switch_cpus_1.data     0.032632                       # miss rate for WriteReq accesses
system.cpu.dcache.WriteReq_miss_rate::total     0.038388                       # miss rate for WriteReq accesses
system.cpu.dcache.WriteReq_avg_miss_latency::.switch_cpus.data 45546.711050                       # average WriteReq miss latency
system.cpu.dcache.WriteReq_avg_miss_latency::.switch_cpus_1.data 45907.409662                       # average WriteReq miss latency
system.cpu.dcache.WriteReq_avg_miss_latency::total 10174.847118                       # average WriteReq miss latency
system.cpu.dcache.WriteReq_mshr_hits::.switch_cpus_1.data           15                       # number of WriteReq MSHR hits
system.cpu.dcache.WriteReq_mshr_hits::total           15                       # number of WriteReq MSHR hits
system.cpu.dcache.WriteReq_mshr_misses::.switch_cpus.data       143146                       # number of WriteReq MSHR misses
system.cpu.dcache.WriteReq_mshr_misses::.switch_cpus_1.data      1135472                       # number of WriteReq MSHR misses
system.cpu.dcache.WriteReq_mshr_misses::total      1278618                       # number of WriteReq MSHR misses
system.cpu.dcache.WriteReq_mshr_miss_latency::.switch_cpus.data   6376683500                       # number of WriteReq MSHR miss cycles
system.cpu.dcache.WriteReq_mshr_miss_latency::.switch_cpus_1.data  50991742375                       # number of WriteReq MSHR miss cycles
system.cpu.dcache.WriteReq_mshr_miss_latency::total  57368425875                       # number of WriteReq MSHR miss cycles
system.cpu.dcache.WriteReq_mshr_miss_rate::.switch_cpus.data     0.043213                       # mshr miss rate for WriteReq accesses
system.cpu.dcache.WriteReq_mshr_miss_rate::.switch_cpus_1.data     0.032632                       # mshr miss rate for WriteReq accesses
system.cpu.dcache.WriteReq_mshr_miss_rate::total     0.008516                       # mshr miss rate for WriteReq accesses
system.cpu.dcache.WriteReq_avg_mshr_miss_latency::.switch_cpus.data 44546.711050                       # average WriteReq mshr miss latency
system.cpu.dcache.WriteReq_avg_mshr_miss_latency::.switch_cpus_1.data 44907.969879                       # average WriteReq mshr miss latency
system.cpu.dcache.WriteReq_avg_mshr_miss_latency::total 44867.525621                       # average WriteReq mshr miss latency
system.cpu.dcache.power_state.pwrStateResidencyTicks::UNDEFINED 1433953694000                       # Cumulative time (in ticks) in various power states
system.cpu.dcache.tags.tagsinuse           511.995873                       # Cycle average of tags in use
system.cpu.dcache.tags.total_refs           620899320                       # Total number of references to valid blocks.
system.cpu.dcache.tags.sampled_refs          19762150                       # Sample count of references to valid blocks.
system.cpu.dcache.tags.avg_refs             31.418612                       # Average number of references to valid blocks.
system.cpu.dcache.tags.warmup_cycle              1500                       # Cycle when the warmup percentage was hit.
system.cpu.dcache.tags.occ_blocks::.cpu.data   366.467909                       # Average occupied blocks per requestor
system.cpu.dcache.tags.occ_blocks::.switch_cpus.data    39.709855                       # Average occupied blocks per requestor
system.cpu.dcache.tags.occ_blocks::.switch_cpus_1.data   105.818109                       # Average occupied blocks per requestor
system.cpu.dcache.tags.occ_percent::.cpu.data     0.715758                       # Average percentage of cache occupancy
system.cpu.dcache.tags.occ_percent::.switch_cpus.data     0.077558                       # Average percentage of cache occupancy
system.cpu.dcache.tags.occ_percent::.switch_cpus_1.data     0.206676                       # Average percentage of cache occupancy
system.cpu.dcache.tags.occ_percent::total     0.999992                       # Average percentage of cache occupancy
system.cpu.dcache.tags.occ_task_id_blocks::1024          512                       # Occupied blocks per task id
system.cpu.dcache.tags.age_task_id_blocks_1024::0          146                       # Occupied blocks per task id
system.cpu.dcache.tags.age_task_id_blocks_1024::1          366                       # Occupied blocks per task id
system.cpu.dcache.tags.occ_task_id_percent::1024            1                       # Percentage of cache occupancy per task id
system.cpu.dcache.tags.tag_accesses        2513501690                       # Number of tag accesses
system.cpu.dcache.tags.data_accesses       2513501690                       # Number of data accesses
system.cpu.dcache.tags.power_state.pwrStateResidencyTicks::UNDEFINED 1433953694000                       # Cumulative time (in ticks) in various power states
system.cpu.power_state.numTransitions               2                       # Number of power state transitions
system.cpu.power_state.pwrStateResidencyTicks::ON 1026110805500                       # Cumulative time (in ticks) in various power states
system.cpu.power_state.pwrStateResidencyTicks::OFF 407842888500                       # Cumulative time (in ticks) in various power states

---------- End Simulation Statistics   ----------
