
---------- Begin Simulation Statistics ----------
final_tick                               1477040245000                       # Number of ticks from beginning of simulation (restored from checkpoints and never reset)
host_inst_rate                                 257018                       # Simulator instruction rate (inst/s)
host_mem_usage                                4546340                       # Number of bytes of host memory used
host_op_rate                                   435573                       # Simulator op (including micro ops) rate (op/s)
host_seconds                                  5446.46                       # Real time elapsed on the host
host_tick_rate                               61206140                       # Simulator tick rate (ticks/s)
sim_freq                                 1000000000000                       # Frequency of simulated ticks
sim_insts                                  1399837585                       # Number of instructions simulated
sim_ops                                    2372328795                       # Number of ops (including micro ops) simulated
sim_seconds                                  0.333357                       # Number of seconds simulated
sim_ticks                                333356807750                       # Number of ticks simulated
system.cpu.committedInsts                           0                       # Number of instructions committed
system.cpu.committedOps                             0                       # Number of ops (including micro ops) committed
system.cpu.dtb.rdAccesses                           0                       # TLB accesses on read requests
system.cpu.dtb.rdMisses                             0                       # TLB misses on read requests
system.cpu.dtb.wrAccesses                           0                       # TLB accesses on write requests
system.cpu.dtb.wrMisses                             0                       # TLB misses on write requests
system.cpu.idle_fraction                            0                       # Percentage of idle cycles
system.cpu.itb.rdAccesses                           0                       # TLB accesses on read requests
system.cpu.itb.rdMisses                             0                       # TLB misses on read requests
system.cpu.itb.wrAccesses                           0                       # TLB accesses on write requests
system.cpu.itb.wrMisses                             0                       # TLB misses on write requests
system.cpu.not_idle_fraction                        1                       # Percentage of non-idle cycles
system.cpu.numCycles                                0                       # number of cpu cycles simulated
system.cpu.numWorkItemsCompleted                    0                       # number of work items this cpu completed
system.cpu.numWorkItemsStarted                      0                       # number of work items this cpu started
system.cpu.num_busy_cycles                          0                       # Number of busy cycles
system.cpu.num_conditional_control_insts            0                       # number of instructions that are conditional controls
system.cpu.num_fp_alu_accesses                      0                       # Number of float alu accesses
system.cpu.num_fp_insts                             0                       # number of float instructions
system.cpu.num_fp_register_reads                    0                       # number of times the floating registers were read
system.cpu.num_fp_register_writes                   0                       # number of times the floating registers were written
system.cpu.num_func_calls                           0                       # number of times a function call or return occured
system.cpu.num_idle_cycles                          0                       # Number of idle cycles
system.cpu.num_int_alu_accesses                     0                       # Number of integer alu accesses
system.cpu.num_int_insts                            0                       # number of integer instructions
system.cpu.num_int_register_reads                   0                       # number of times the integer registers were read
system.cpu.num_int_register_writes                  0                       # number of times the integer registers were written
system.cpu.num_load_insts                           0                       # Number of load instructions
system.cpu.num_mem_refs                             0                       # number of memory refs
system.cpu.num_store_insts                          0                       # Number of store instructions
system.cpu.num_vec_alu_accesses                     0                       # Number of vector alu accesses
system.cpu.num_vec_insts                            0                       # number of vector instructions
system.cpu.num_vec_register_reads                   0                       # number of times the vector registers were read
system.cpu.num_vec_register_writes                  0                       # number of times the vector registers were written
system.cpu.op_class::No_OpClass                     0                       # Class of executed instruction
system.cpu.op_class::IntAlu                         0                       # Class of executed instruction
system.cpu.op_class::IntMult                        0                       # Class of executed instruction
system.cpu.op_class::IntDiv                         0                       # Class of executed instruction
system.cpu.op_class::FloatAdd                       0                       # Class of executed instruction
system.cpu.op_class::FloatCmp                       0                       # Class of executed instruction
system.cpu.op_class::FloatCvt                       0                       # Class of executed instruction
system.cpu.op_class::FloatMult                      0                       # Class of executed instruction
system.cpu.op_class::FloatMultAcc                   0                       # Class of executed instruction
system.cpu.op_class::FloatDiv                       0                       # Class of executed instruction
system.cpu.op_class::FloatMisc                      0                       # Class of executed instruction
system.cpu.op_class::FloatSqrt                      0                       # Class of executed instruction
system.cpu.op_class::SimdAdd                        0                       # Class of executed instruction
system.cpu.op_class::SimdAddAcc                     0                       # Class of executed instruction
system.cpu.op_class::SimdAlu                        0                       # Class of executed instruction
system.cpu.op_class::SimdCmp                        0                       # Class of executed instruction
system.cpu.op_class::SimdCvt                        0                       # Class of executed instruction
system.cpu.op_class::SimdMisc                       0                       # Class of executed instruction
system.cpu.op_class::SimdMult                       0                       # Class of executed instruction
system.cpu.op_class::SimdMultAcc                    0                       # Class of executed instruction
system.cpu.op_class::SimdShift                      0                       # Class of executed instruction
system.cpu.op_class::SimdShiftAcc                   0                       # Class of executed instruction
system.cpu.op_class::SimdDiv                        0                       # Class of executed instruction
system.cpu.op_class::SimdSqrt                       0                       # Class of executed instruction
system.cpu.op_class::SimdFloatAdd                   0                       # Class of executed instruction
system.cpu.op_class::SimdFloatAlu                   0                       # Class of executed instruction
system.cpu.op_class::SimdFloatCmp                   0                       # Class of executed instruction
system.cpu.op_class::SimdFloatCvt                   0                       # Class of executed instruction
system.cpu.op_class::SimdFloatDiv                   0                       # Class of executed instruction
system.cpu.op_class::SimdFloatMisc                  0                       # Class of executed instruction
system.cpu.op_class::SimdFloatMult                  0                       # Class of executed instruction
system.cpu.op_class::SimdFloatMultAcc               0                       # Class of executed instruction
system.cpu.op_class::SimdFloatSqrt                  0                       # Class of executed instruction
system.cpu.op_class::SimdReduceAdd                  0                       # Class of executed instruction
system.cpu.op_class::SimdReduceAlu                  0                       # Class of executed instruction
system.cpu.op_class::SimdReduceCmp                  0                       # Class of executed instruction
system.cpu.op_class::SimdFloatReduceAdd             0                       # Class of executed instruction
system.cpu.op_class::SimdFloatReduceCmp             0                       # Class of executed instruction
system.cpu.op_class::SimdAes                        0                       # Class of executed instruction
system.cpu.op_class::SimdAesMix                     0                       # Class of executed instruction
system.cpu.op_class::SimdSha1Hash                   0                       # Class of executed instruction
system.cpu.op_class::SimdSha1Hash2                  0                       # Class of executed instruction
system.cpu.op_class::SimdSha256Hash                 0                       # Class of executed instruction
system.cpu.op_class::SimdSha256Hash2                0                       # Class of executed instruction
system.cpu.op_class::SimdShaSigma2                  0                       # Class of executed instruction
system.cpu.op_class::SimdShaSigma3                  0                       # Class of executed instruction
system.cpu.op_class::SimdPredAlu                    0                       # Class of executed instruction
system.cpu.op_class::MemRead                        0                       # Class of executed instruction
system.cpu.op_class::MemWrite                       0                       # Class of executed instruction
system.cpu.op_class::FloatMemRead                   0                       # Class of executed instruction
system.cpu.op_class::FloatMemWrite                  0                       # Class of executed instruction
system.cpu.op_class::IprAccess                      0                       # Class of executed instruction
system.cpu.op_class::InstPrefetch                   0                       # Class of executed instruction
system.cpu.op_class::total                          0                       # Class of executed instruction
system.cpu.workload.numSyscalls                     6                       # Number of system calls
system.membus.snoop_filter.hit_multi_requests            0                       # Number of requests hitting in the snoop filter with multiple (>1) holders of the requested data.
system.membus.snoop_filter.hit_multi_snoops            0                       # Number of snoops hitting in the snoop filter with multiple (>1) holders of the requested data.
system.membus.snoop_filter.hit_single_requests      1560080                       # Number of requests hitting in the snoop filter with a single holder of the requested data.
system.membus.snoop_filter.hit_single_snoops            0                       # Number of snoops hitting in the snoop filter with a single holder of the requested data.
system.membus.snoop_filter.tot_requests       3120000                       # Total number of requests made to the snoop filter.
system.membus.snoop_filter.tot_snoops               0                       # Total number of snoops made to the snoop filter.
system.switch_cpus.committedInsts                   0                       # Number of instructions committed
system.switch_cpus.committedOps                     0                       # Number of ops (including micro ops) committed
system.switch_cpus.dtb.rdAccesses                   0                       # TLB accesses on read requests
system.switch_cpus.dtb.rdMisses                     0                       # TLB misses on read requests
system.switch_cpus.dtb.wrAccesses                   0                       # TLB accesses on write requests
system.switch_cpus.dtb.wrMisses                     0                       # TLB misses on write requests
system.switch_cpus.idle_fraction                    0                       # Percentage of idle cycles
system.switch_cpus.itb.rdAccesses                   0                       # TLB accesses on read requests
system.switch_cpus.itb.rdMisses                     0                       # TLB misses on read requests
system.switch_cpus.itb.wrAccesses                   0                       # TLB accesses on write requests
system.switch_cpus.itb.wrMisses                     0                       # TLB misses on write requests
system.switch_cpus.not_idle_fraction                1                       # Percentage of non-idle cycles
system.switch_cpus.numCycles                        0                       # number of cpu cycles simulated
system.switch_cpus.numWorkItemsCompleted            0                       # number of work items this cpu completed
system.switch_cpus.numWorkItemsStarted              0                       # number of work items this cpu started
system.switch_cpus.num_busy_cycles                  0                       # Number of busy cycles
system.switch_cpus.num_conditional_control_insts            0                       # number of instructions that are conditional controls
system.switch_cpus.num_fp_alu_accesses              0                       # Number of float alu accesses
system.switch_cpus.num_fp_insts                     0                       # number of float instructions
system.switch_cpus.num_fp_register_reads            0                       # number of times the floating registers were read
system.switch_cpus.num_fp_register_writes            0                       # number of times the floating registers were written
system.switch_cpus.num_func_calls                   0                       # number of times a function call or return occured
system.switch_cpus.num_idle_cycles                  0                       # Number of idle cycles
system.switch_cpus.num_int_alu_accesses             0                       # Number of integer alu accesses
system.switch_cpus.num_int_insts                    0                       # number of integer instructions
system.switch_cpus.num_int_register_reads            0                       # number of times the integer registers were read
system.switch_cpus.num_int_register_writes            0                       # number of times the integer registers were written
system.switch_cpus.num_load_insts                   0                       # Number of load instructions
system.switch_cpus.num_mem_refs                     0                       # number of memory refs
system.switch_cpus.num_store_insts                  0                       # Number of store instructions
system.switch_cpus.num_vec_alu_accesses             0                       # Number of vector alu accesses
system.switch_cpus.num_vec_insts                    0                       # number of vector instructions
system.switch_cpus.num_vec_register_reads            0                       # number of times the vector registers were read
system.switch_cpus.num_vec_register_writes            0                       # number of times the vector registers were written
system.switch_cpus.op_class::No_OpClass             0                       # Class of executed instruction
system.switch_cpus.op_class::IntAlu                 0                       # Class of executed instruction
system.switch_cpus.op_class::IntMult                0                       # Class of executed instruction
system.switch_cpus.op_class::IntDiv                 0                       # Class of executed instruction
system.switch_cpus.op_class::FloatAdd               0                       # Class of executed instruction
system.switch_cpus.op_class::FloatCmp               0                       # Class of executed instruction
system.switch_cpus.op_class::FloatCvt               0                       # Class of executed instruction
system.switch_cpus.op_class::FloatMult              0                       # Class of executed instruction
system.switch_cpus.op_class::FloatMultAcc            0                       # Class of executed instruction
system.switch_cpus.op_class::FloatDiv               0                       # Class of executed instruction
system.switch_cpus.op_class::FloatMisc              0                       # Class of executed instruction
system.switch_cpus.op_class::FloatSqrt              0                       # Class of executed instruction
system.switch_cpus.op_class::SimdAdd                0                       # Class of executed instruction
system.switch_cpus.op_class::SimdAddAcc             0                       # Class of executed instruction
system.switch_cpus.op_class::SimdAlu                0                       # Class of executed instruction
system.switch_cpus.op_class::SimdCmp                0                       # Class of executed instruction
system.switch_cpus.op_class::SimdCvt                0                       # Class of executed instruction
system.switch_cpus.op_class::SimdMisc               0                       # Class of executed instruction
system.switch_cpus.op_class::SimdMult               0                       # Class of executed instruction
system.switch_cpus.op_class::SimdMultAcc            0                       # Class of executed instruction
system.switch_cpus.op_class::SimdShift              0                       # Class of executed instruction
system.switch_cpus.op_class::SimdShiftAcc            0                       # Class of executed instruction
system.switch_cpus.op_class::SimdDiv                0                       # Class of executed instruction
system.switch_cpus.op_class::SimdSqrt               0                       # Class of executed instruction
system.switch_cpus.op_class::SimdFloatAdd            0                       # Class of executed instruction
system.switch_cpus.op_class::SimdFloatAlu            0                       # Class of executed instruction
system.switch_cpus.op_class::SimdFloatCmp            0                       # Class of executed instruction
system.switch_cpus.op_class::SimdFloatCvt            0                       # Class of executed instruction
system.switch_cpus.op_class::SimdFloatDiv            0                       # Class of executed instruction
system.switch_cpus.op_class::SimdFloatMisc            0                       # Class of executed instruction
system.switch_cpus.op_class::SimdFloatMult            0                       # Class of executed instruction
system.switch_cpus.op_class::SimdFloatMultAcc            0                       # Class of executed instruction
system.switch_cpus.op_class::SimdFloatSqrt            0                       # Class of executed instruction
system.switch_cpus.op_class::SimdReduceAdd            0                       # Class of executed instruction
system.switch_cpus.op_class::SimdReduceAlu            0                       # Class of executed instruction
system.switch_cpus.op_class::SimdReduceCmp            0                       # Class of executed instruction
system.switch_cpus.op_class::SimdFloatReduceAdd            0                       # Class of executed instruction
system.switch_cpus.op_class::SimdFloatReduceCmp            0                       # Class of executed instruction
system.switch_cpus.op_class::SimdAes                0                       # Class of executed instruction
system.switch_cpus.op_class::SimdAesMix             0                       # Class of executed instruction
system.switch_cpus.op_class::SimdSha1Hash            0                       # Class of executed instruction
system.switch_cpus.op_class::SimdSha1Hash2            0                       # Class of executed instruction
system.switch_cpus.op_class::SimdSha256Hash            0                       # Class of executed instruction
system.switch_cpus.op_class::SimdSha256Hash2            0                       # Class of executed instruction
system.switch_cpus.op_class::SimdShaSigma2            0                       # Class of executed instruction
system.switch_cpus.op_class::SimdShaSigma3            0                       # Class of executed instruction
system.switch_cpus.op_class::SimdPredAlu            0                       # Class of executed instruction
system.switch_cpus.op_class::MemRead                0                       # Class of executed instruction
system.switch_cpus.op_class::MemWrite               0                       # Class of executed instruction
system.switch_cpus.op_class::FloatMemRead            0                       # Class of executed instruction
system.switch_cpus.op_class::FloatMemWrite            0                       # Class of executed instruction
system.switch_cpus.op_class::IprAccess              0                       # Class of executed instruction
system.switch_cpus.op_class::InstPrefetch            0                       # Class of executed instruction
system.switch_cpus.op_class::total                  0                       # Class of executed instruction
system.switch_cpus_1.branchPred.BTBCorrect            0                       # Number of correct BTB predictions (this stat may not work properly.
system.switch_cpus_1.branchPred.BTBHitPct          nan                       # BTB Hit Percentage
system.switch_cpus_1.branchPred.BTBHits             0                       # Number of BTB hits
system.switch_cpus_1.branchPred.BTBLookups            0                       # Number of BTB lookups
system.switch_cpus_1.branchPred.RASInCorrect           46                       # Number of incorrect RAS predictions.
system.switch_cpus_1.branchPred.condIncorrect     11009134                       # Number of conditional branches incorrect
system.switch_cpus_1.branchPred.condPredicted    117534662                       # Number of conditional branches predicted
system.switch_cpus_1.branchPred.indirectHits     38400086                       # Number of indirect target hits.
system.switch_cpus_1.branchPred.indirectLookups     65299229                       # Number of indirect predictor lookups.
system.switch_cpus_1.branchPred.indirectMisses     26899143                       # Number of indirect misses.
system.switch_cpus_1.branchPred.lookups     125012432                       # Number of BP lookups
system.switch_cpus_1.branchPred.usedRAS       2640695                       # Number of times the RAS was used to get a target.
system.switch_cpus_1.branchPredindirectMispredicted      6154585                       # Number of mispredicted indirect branches.
system.switch_cpus_1.cc_regfile_reads       361691083                       # number of cc regfile reads
system.switch_cpus_1.cc_regfile_writes      314241949                       # number of cc regfile writes
system.switch_cpus_1.commit.amos                    0                       # Number of atomic instructions committed
system.switch_cpus_1.commit.branchMispredicts     11009714                       # The number of times a branch was mispredicted
system.switch_cpus_1.commit.branches         57167651                       # Number of branches committed
system.switch_cpus_1.commit.bw_lim_events     34382453                       # number cycles where commit BW limit reached
system.switch_cpus_1.commit.commitNonSpecStalls            6                       # The number of times commit has been forced to stall to communicate backwards
system.switch_cpus_1.commit.commitSquashedInsts    424379609                       # The number of squashed insts skipped by commit
system.switch_cpus_1.commit.committedInsts    349837583                       # Number of instructions committed
system.switch_cpus_1.commit.committedOps    591390416                       # Number of ops (including micro ops) committed
system.switch_cpus_1.commit.committed_per_cycle::samples    603827960                       # Number of insts commited each cycle
system.switch_cpus_1.commit.committed_per_cycle::mean     0.979402                       # Number of insts commited each cycle
system.switch_cpus_1.commit.committed_per_cycle::stdev     2.094477                       # Number of insts commited each cycle
system.switch_cpus_1.commit.committed_per_cycle::underflows            0      0.00%      0.00% # Number of insts commited each cycle
system.switch_cpus_1.commit.committed_per_cycle::0    425893062     70.53%     70.53% # Number of insts commited each cycle
system.switch_cpus_1.commit.committed_per_cycle::1     69470098     11.50%     82.04% # Number of insts commited each cycle
system.switch_cpus_1.commit.committed_per_cycle::2     22666848      3.75%     85.79% # Number of insts commited each cycle
system.switch_cpus_1.commit.committed_per_cycle::3     26437587      4.38%     90.17% # Number of insts commited each cycle
system.switch_cpus_1.commit.committed_per_cycle::4     13481118      2.23%     92.40% # Number of insts commited each cycle
system.switch_cpus_1.commit.committed_per_cycle::5      4475346      0.74%     93.14% # Number of insts commited each cycle
system.switch_cpus_1.commit.committed_per_cycle::6      3237101      0.54%     93.68% # Number of insts commited each cycle
system.switch_cpus_1.commit.committed_per_cycle::7      3784347      0.63%     94.31% # Number of insts commited each cycle
system.switch_cpus_1.commit.committed_per_cycle::8     34382453      5.69%    100.00% # Number of insts commited each cycle
system.switch_cpus_1.commit.committed_per_cycle::overflows            0      0.00%    100.00% # Number of insts commited each cycle
system.switch_cpus_1.commit.committed_per_cycle::min_value            0                       # Number of insts commited each cycle
system.switch_cpus_1.commit.committed_per_cycle::max_value            8                       # Number of insts commited each cycle
system.switch_cpus_1.commit.committed_per_cycle::total    603827960                       # Number of insts commited each cycle
system.switch_cpus_1.commit.fp_insts           157352                       # Number of committed floating point instructions.
system.switch_cpus_1.commit.function_calls      1587937                       # Number of function calls committed.
system.switch_cpus_1.commit.int_insts       590654157                       # Number of committed integer instructions.
system.switch_cpus_1.commit.loads           104027389                       # Number of loads committed
system.switch_cpus_1.commit.membars                 0                       # Number of memory barriers committed
system.switch_cpus_1.commit.op_class_0::No_OpClass       735700      0.12%      0.12% # Class of committed instruction
system.switch_cpus_1.commit.op_class_0::IntAlu    451836507     76.40%     76.53% # Class of committed instruction
system.switch_cpus_1.commit.op_class_0::IntMult          343      0.00%     76.53% # Class of committed instruction
system.switch_cpus_1.commit.op_class_0::IntDiv          153      0.00%     76.53% # Class of committed instruction
system.switch_cpus_1.commit.op_class_0::FloatAdd            8      0.00%     76.53% # Class of committed instruction
system.switch_cpus_1.commit.op_class_0::FloatCmp            0      0.00%     76.53% # Class of committed instruction
system.switch_cpus_1.commit.op_class_0::FloatCvt            0      0.00%     76.53% # Class of committed instruction
system.switch_cpus_1.commit.op_class_0::FloatMult            0      0.00%     76.53% # Class of committed instruction
system.switch_cpus_1.commit.op_class_0::FloatMultAcc            0      0.00%     76.53% # Class of committed instruction
system.switch_cpus_1.commit.op_class_0::FloatDiv            0      0.00%     76.53% # Class of committed instruction
system.switch_cpus_1.commit.op_class_0::FloatMisc            0      0.00%     76.53% # Class of committed instruction
system.switch_cpus_1.commit.op_class_0::FloatSqrt            0      0.00%     76.53% # Class of committed instruction
system.switch_cpus_1.commit.op_class_0::SimdAdd            0      0.00%     76.53% # Class of committed instruction
system.switch_cpus_1.commit.op_class_0::SimdAddAcc            0      0.00%     76.53% # Class of committed instruction
system.switch_cpus_1.commit.op_class_0::SimdAlu           32      0.00%     76.53% # Class of committed instruction
system.switch_cpus_1.commit.op_class_0::SimdCmp            0      0.00%     76.53% # Class of committed instruction
system.switch_cpus_1.commit.op_class_0::SimdCvt           56      0.00%     76.53% # Class of committed instruction
system.switch_cpus_1.commit.op_class_0::SimdMisc          112      0.00%     76.53% # Class of committed instruction
system.switch_cpus_1.commit.op_class_0::SimdMult            0      0.00%     76.53% # Class of committed instruction
system.switch_cpus_1.commit.op_class_0::SimdMultAcc            0      0.00%     76.53% # Class of committed instruction
system.switch_cpus_1.commit.op_class_0::SimdShift            0      0.00%     76.53% # Class of committed instruction
system.switch_cpus_1.commit.op_class_0::SimdShiftAcc            0      0.00%     76.53% # Class of committed instruction
system.switch_cpus_1.commit.op_class_0::SimdDiv            0      0.00%     76.53% # Class of committed instruction
system.switch_cpus_1.commit.op_class_0::SimdSqrt            0      0.00%     76.53% # Class of committed instruction
system.switch_cpus_1.commit.op_class_0::SimdFloatAdd            0      0.00%     76.53% # Class of committed instruction
system.switch_cpus_1.commit.op_class_0::SimdFloatAlu            0      0.00%     76.53% # Class of committed instruction
system.switch_cpus_1.commit.op_class_0::SimdFloatCmp            0      0.00%     76.53% # Class of committed instruction
system.switch_cpus_1.commit.op_class_0::SimdFloatCvt            0      0.00%     76.53% # Class of committed instruction
system.switch_cpus_1.commit.op_class_0::SimdFloatDiv            0      0.00%     76.53% # Class of committed instruction
system.switch_cpus_1.commit.op_class_0::SimdFloatMisc            0      0.00%     76.53% # Class of committed instruction
system.switch_cpus_1.commit.op_class_0::SimdFloatMult            0      0.00%     76.53% # Class of committed instruction
system.switch_cpus_1.commit.op_class_0::SimdFloatMultAcc            0      0.00%     76.53% # Class of committed instruction
system.switch_cpus_1.commit.op_class_0::SimdFloatSqrt            0      0.00%     76.53% # Class of committed instruction
system.switch_cpus_1.commit.op_class_0::SimdReduceAdd            0      0.00%     76.53% # Class of committed instruction
system.switch_cpus_1.commit.op_class_0::SimdReduceAlu            0      0.00%     76.53% # Class of committed instruction
system.switch_cpus_1.commit.op_class_0::SimdReduceCmp            0      0.00%     76.53% # Class of committed instruction
system.switch_cpus_1.commit.op_class_0::SimdFloatReduceAdd            0      0.00%     76.53% # Class of committed instruction
system.switch_cpus_1.commit.op_class_0::SimdFloatReduceCmp            0      0.00%     76.53% # Class of committed instruction
system.switch_cpus_1.commit.op_class_0::SimdAes            0      0.00%     76.53% # Class of committed instruction
system.switch_cpus_1.commit.op_class_0::SimdAesMix            0      0.00%     76.53% # Class of committed instruction
system.switch_cpus_1.commit.op_class_0::SimdSha1Hash            0      0.00%     76.53% # Class of committed instruction
system.switch_cpus_1.commit.op_class_0::SimdSha1Hash2            0      0.00%     76.53% # Class of committed instruction
system.switch_cpus_1.commit.op_class_0::SimdSha256Hash            0      0.00%     76.53% # Class of committed instruction
system.switch_cpus_1.commit.op_class_0::SimdSha256Hash2            0      0.00%     76.53% # Class of committed instruction
system.switch_cpus_1.commit.op_class_0::SimdShaSigma2            0      0.00%     76.53% # Class of committed instruction
system.switch_cpus_1.commit.op_class_0::SimdShaSigma3            0      0.00%     76.53% # Class of committed instruction
system.switch_cpus_1.commit.op_class_0::SimdPredAlu            0      0.00%     76.53% # Class of committed instruction
system.switch_cpus_1.commit.op_class_0::MemRead    104027355     17.59%     94.12% # Class of committed instruction
system.switch_cpus_1.commit.op_class_0::MemWrite     34633036      5.86%     99.97% # Class of committed instruction
system.switch_cpus_1.commit.op_class_0::FloatMemRead           34      0.00%     99.97% # Class of committed instruction
system.switch_cpus_1.commit.op_class_0::FloatMemWrite       157080      0.03%    100.00% # Class of committed instruction
system.switch_cpus_1.commit.op_class_0::IprAccess            0      0.00%    100.00% # Class of committed instruction
system.switch_cpus_1.commit.op_class_0::InstPrefetch            0      0.00%    100.00% # Class of committed instruction
system.switch_cpus_1.commit.op_class_0::total    591390416                       # Class of committed instruction
system.switch_cpus_1.commit.refs            138817505                       # Number of memory references committed
system.switch_cpus_1.commit.swp_count               0                       # Number of s/w prefetches committed
system.switch_cpus_1.commit.vec_insts               0                       # Number of committed Vector instructions.
system.switch_cpus_1.committedInsts         349837583                       # Number of Instructions Simulated
system.switch_cpus_1.committedOps           591390416                       # Number of Ops (including micro ops) Simulated
system.switch_cpus_1.cpi                     1.905780                       # CPI: Cycles Per Instruction
system.switch_cpus_1.cpi_total               1.905780                       # CPI: Total CPI of All Threads
system.switch_cpus_1.decode.BlockedCycles    422887121                       # Number of cycles decode is blocked
system.switch_cpus_1.decode.DecodedInsts   1178660339                       # Number of instructions handled by decode
system.switch_cpus_1.decode.IdleCycles       67060651                       # Number of cycles decode is idle
system.switch_cpus_1.decode.RunCycles       135055120                       # Number of cycles decode is running
system.switch_cpus_1.decode.SquashCycles     11042683                       # Number of cycles decode is squashing
system.switch_cpus_1.decode.UnblockCycles     30626048                       # Number of cycles decode is unblocking
system.switch_cpus_1.dtb.rdAccesses         147568389                       # TLB accesses on read requests
system.switch_cpus_1.dtb.rdMisses             1982060                       # TLB misses on read requests
system.switch_cpus_1.dtb.wrAccesses          44992610                       # TLB accesses on write requests
system.switch_cpus_1.dtb.wrMisses              516993                       # TLB misses on write requests
system.switch_cpus_1.fetch.Branches         125012432                       # Number of branches that fetch encountered
system.switch_cpus_1.fetch.CacheLines        83248124                       # Number of cache lines fetched
system.switch_cpus_1.fetch.Cycles           565277874                       # Number of cycles fetch has run and was not squashing or blocked
system.switch_cpus_1.fetch.IcacheSquashes      2528644                       # Number of outstanding Icache misses that were squashed
system.switch_cpus_1.fetch.IcacheWaitRetryStallCycles           66                       # Number of stall cycles due to full MSHR
system.switch_cpus_1.fetch.Insts            771180907                       # Number of instructions fetch has processed
system.switch_cpus_1.fetch.MiscStallCycles          593                       # Number of cycles fetch has spent waiting on interrupts, or bad addresses, or out of MSHRs
system.switch_cpus_1.fetch.PendingQuiesceStallCycles            6                       # Number of stall cycles due to pending quiesce instructions
system.switch_cpus_1.fetch.PendingTrapStallCycles         8785                       # Number of stall cycles due to pending traps
system.switch_cpus_1.fetch.SquashCycles      22085366                       # Number of cycles fetch has spent squashing
system.switch_cpus_1.fetch.TlbCycles                2                       # Number of cycles fetch has spent waiting for tlb
system.switch_cpus_1.fetch.branchRate        0.187505                       # Number of branch fetches per cycle
system.switch_cpus_1.fetch.icacheStallCycles     90341625                       # Number of cycles fetch is stalled on an Icache miss
system.switch_cpus_1.fetch.predictedBranches     41040781                       # Number of branches that fetch has predicted taken
system.switch_cpus_1.fetch.rate              1.156690                       # Number of inst fetches per cycle
system.switch_cpus_1.fetch.rateDist::samples    666671634                       # Number of instructions fetched each cycle (Total)
system.switch_cpus_1.fetch.rateDist::mean     1.923742                       # Number of instructions fetched each cycle (Total)
system.switch_cpus_1.fetch.rateDist::stdev     3.175109                       # Number of instructions fetched each cycle (Total)
system.switch_cpus_1.fetch.rateDist::underflows            0      0.00%      0.00% # Number of instructions fetched each cycle (Total)
system.switch_cpus_1.fetch.rateDist::0      461483736     69.22%     69.22% # Number of instructions fetched each cycle (Total)
system.switch_cpus_1.fetch.rateDist::1       11941784      1.79%     71.01% # Number of instructions fetched each cycle (Total)
system.switch_cpus_1.fetch.rateDist::2       15172385      2.28%     73.29% # Number of instructions fetched each cycle (Total)
system.switch_cpus_1.fetch.rateDist::3       11625807      1.74%     75.03% # Number of instructions fetched each cycle (Total)
system.switch_cpus_1.fetch.rateDist::4       10092413      1.51%     76.55% # Number of instructions fetched each cycle (Total)
system.switch_cpus_1.fetch.rateDist::5       18187691      2.73%     79.27% # Number of instructions fetched each cycle (Total)
system.switch_cpus_1.fetch.rateDist::6       10809629      1.62%     80.90% # Number of instructions fetched each cycle (Total)
system.switch_cpus_1.fetch.rateDist::7        9691421      1.45%     82.35% # Number of instructions fetched each cycle (Total)
system.switch_cpus_1.fetch.rateDist::8      117666768     17.65%    100.00% # Number of instructions fetched each cycle (Total)
system.switch_cpus_1.fetch.rateDist::overflows            0      0.00%    100.00% # Number of instructions fetched each cycle (Total)
system.switch_cpus_1.fetch.rateDist::min_value            0                       # Number of instructions fetched each cycle (Total)
system.switch_cpus_1.fetch.rateDist::max_value            8                       # Number of instructions fetched each cycle (Total)
system.switch_cpus_1.fetch.rateDist::total    666671634                       # Number of instructions fetched each cycle (Total)
system.switch_cpus_1.fp_regfile_reads          279607                       # number of floating regfile reads
system.switch_cpus_1.fp_regfile_writes          78364                       # number of floating regfile writes
system.switch_cpus_1.idleCycles                 41981                       # Total number of cycles that the CPU has spent unscheduled due to idling
system.switch_cpus_1.iew.branchMispredicts     13230185                       # Number of branch mispredicts detected at execute
system.switch_cpus_1.iew.exec_branches       73920014                       # Number of branches executed
system.switch_cpus_1.iew.exec_nop                   0                       # number of nop insts executed
system.switch_cpus_1.iew.exec_rate           1.269030                       # Inst execution rate
system.switch_cpus_1.iew.exec_refs          195731791                       # number of memory reference insts executed
system.switch_cpus_1.iew.exec_stores         44986276                       # Number of stores executed
system.switch_cpus_1.iew.exec_swp                   0                       # number of swp insts executed
system.switch_cpus_1.iew.iewBlockCycles     162144528                       # Number of cycles IEW is blocking
system.switch_cpus_1.iew.iewDispLoadInsts    182009229                       # Number of dispatched load instructions
system.switch_cpus_1.iew.iewDispNonSpecInsts           77                       # Number of dispatched non-speculative instructions
system.switch_cpus_1.iew.iewDispSquashedInsts       953851                       # Number of squashed instructions skipped by dispatch
system.switch_cpus_1.iew.iewDispStoreInsts     65206092                       # Number of dispatched store instructions
system.switch_cpus_1.iew.iewDispatchedInsts   1015655544                       # Number of instructions dispatched to IQ
system.switch_cpus_1.iew.iewExecLoadInsts    150745515                       # Number of load instructions executed
system.switch_cpus_1.iew.iewExecSquashedInsts     27042495                       # Number of squashed instructions skipped in execute
system.switch_cpus_1.iew.iewExecutedInsts    846079251                       # Number of executed instructions
system.switch_cpus_1.iew.iewIQFullEvents      1178435                       # Number of times the IQ has become full, causing a stall
system.switch_cpus_1.iew.iewIdleCycles              0                       # Number of cycles IEW is idle
system.switch_cpus_1.iew.iewLSQFullEvents     44494117                       # Number of times the LSQ has become full, causing a stall
system.switch_cpus_1.iew.iewSquashCycles     11042683                       # Number of cycles IEW is squashing
system.switch_cpus_1.iew.iewUnblockCycles     46650553                       # Number of cycles IEW is unblocking
system.switch_cpus_1.iew.lsq.thread0.blockedLoads            0                       # Number of blocked loads due to partial load-store forwarding
system.switch_cpus_1.iew.lsq.thread0.cacheBlocked      1019756                       # Number of times an access to memory failed due to the cache being blocked
system.switch_cpus_1.iew.lsq.thread0.forwLoads     14030747                       # Number of loads that had data forwarded from stores
system.switch_cpus_1.iew.lsq.thread0.ignoredResponses        71238                       # Number of memory responses ignored because the instruction is squashed
system.switch_cpus_1.iew.lsq.thread0.invAddrLoads            0                       # Number of loads ignored due to an invalid address
system.switch_cpus_1.iew.lsq.thread0.invAddrSwpfs            0                       # Number of software prefetches ignored due to an invalid address
system.switch_cpus_1.iew.lsq.thread0.memOrderViolation        41705                       # Number of memory ordering violations
system.switch_cpus_1.iew.lsq.thread0.rescheduledLoads        53838                       # Number of loads that were rescheduled
system.switch_cpus_1.iew.lsq.thread0.squashedLoads     77981840                       # Number of loads squashed
system.switch_cpus_1.iew.lsq.thread0.squashedStores     30415976                       # Number of stores squashed
system.switch_cpus_1.iew.memOrderViolationEvents        41705                       # Number of memory order violations
system.switch_cpus_1.iew.predictedNotTakenIncorrect     11909157                       # Number of branches that were predicted not taken incorrectly
system.switch_cpus_1.iew.predictedTakenIncorrect      1321028                       # Number of branches that were predicted taken incorrectly
system.switch_cpus_1.iew.wb_consumers       955788599                       # num instructions consuming a value
system.switch_cpus_1.iew.wb_count           825902215                       # cumulative count of insts written-back
system.switch_cpus_1.iew.wb_fanout           0.664392                       # average fanout of values written-back
system.switch_cpus_1.iew.wb_producers       635018195                       # num instructions producing a value
system.switch_cpus_1.iew.wb_rate             1.238766                       # insts written-back per cycle
system.switch_cpus_1.iew.wb_sent            831692397                       # cumulative count of insts sent to commit
system.switch_cpus_1.int_regfile_reads     1294301522                       # number of integer regfile reads
system.switch_cpus_1.int_regfile_writes     709299444                       # number of integer regfile writes
system.switch_cpus_1.ipc                     0.524719                       # IPC: Instructions Per Cycle
system.switch_cpus_1.ipc_total               0.524719                       # IPC: Total IPC of All Threads
system.switch_cpus_1.iq.FU_type_0::No_OpClass      3053564      0.35%      0.35% # Type of FU issued
system.switch_cpus_1.iq.FU_type_0::IntAlu    664299561     76.08%     76.43% # Type of FU issued
system.switch_cpus_1.iq.FU_type_0::IntMult          362      0.00%     76.43% # Type of FU issued
system.switch_cpus_1.iq.FU_type_0::IntDiv          158      0.00%     76.43% # Type of FU issued
system.switch_cpus_1.iq.FU_type_0::FloatAdd           11      0.00%     76.43% # Type of FU issued
system.switch_cpus_1.iq.FU_type_0::FloatCmp            0      0.00%     76.43% # Type of FU issued
system.switch_cpus_1.iq.FU_type_0::FloatCvt         6866      0.00%     76.43% # Type of FU issued
system.switch_cpus_1.iq.FU_type_0::FloatMult            0      0.00%     76.43% # Type of FU issued
system.switch_cpus_1.iq.FU_type_0::FloatMultAcc            0      0.00%     76.43% # Type of FU issued
system.switch_cpus_1.iq.FU_type_0::FloatDiv            0      0.00%     76.43% # Type of FU issued
system.switch_cpus_1.iq.FU_type_0::FloatMisc            0      0.00%     76.43% # Type of FU issued
system.switch_cpus_1.iq.FU_type_0::FloatSqrt            0      0.00%     76.43% # Type of FU issued
system.switch_cpus_1.iq.FU_type_0::SimdAdd            0      0.00%     76.43% # Type of FU issued
system.switch_cpus_1.iq.FU_type_0::SimdAddAcc            0      0.00%     76.43% # Type of FU issued
system.switch_cpus_1.iq.FU_type_0::SimdAlu           38      0.00%     76.43% # Type of FU issued
system.switch_cpus_1.iq.FU_type_0::SimdCmp            0      0.00%     76.43% # Type of FU issued
system.switch_cpus_1.iq.FU_type_0::SimdCvt           66      0.00%     76.43% # Type of FU issued
system.switch_cpus_1.iq.FU_type_0::SimdMisc       105146      0.01%     76.45% # Type of FU issued
system.switch_cpus_1.iq.FU_type_0::SimdMult            0      0.00%     76.45% # Type of FU issued
system.switch_cpus_1.iq.FU_type_0::SimdMultAcc            0      0.00%     76.45% # Type of FU issued
system.switch_cpus_1.iq.FU_type_0::SimdShift            0      0.00%     76.45% # Type of FU issued
system.switch_cpus_1.iq.FU_type_0::SimdShiftAcc            0      0.00%     76.45% # Type of FU issued
system.switch_cpus_1.iq.FU_type_0::SimdDiv            0      0.00%     76.45% # Type of FU issued
system.switch_cpus_1.iq.FU_type_0::SimdSqrt            0      0.00%     76.45% # Type of FU issued
system.switch_cpus_1.iq.FU_type_0::SimdFloatAdd            0      0.00%     76.45% # Type of FU issued
system.switch_cpus_1.iq.FU_type_0::SimdFloatAlu            0      0.00%     76.45% # Type of FU issued
system.switch_cpus_1.iq.FU_type_0::SimdFloatCmp            0      0.00%     76.45% # Type of FU issued
system.switch_cpus_1.iq.FU_type_0::SimdFloatCvt        39790      0.00%     76.45% # Type of FU issued
system.switch_cpus_1.iq.FU_type_0::SimdFloatDiv            0      0.00%     76.45% # Type of FU issued
system.switch_cpus_1.iq.FU_type_0::SimdFloatMisc            0      0.00%     76.45% # Type of FU issued
system.switch_cpus_1.iq.FU_type_0::SimdFloatMult            0      0.00%     76.45% # Type of FU issued
system.switch_cpus_1.iq.FU_type_0::SimdFloatMultAcc            0      0.00%     76.45% # Type of FU issued
system.switch_cpus_1.iq.FU_type_0::SimdFloatSqrt            0      0.00%     76.45% # Type of FU issued
system.switch_cpus_1.iq.FU_type_0::SimdReduceAdd            0      0.00%     76.45% # Type of FU issued
system.switch_cpus_1.iq.FU_type_0::SimdReduceAlu            0      0.00%     76.45% # Type of FU issued
system.switch_cpus_1.iq.FU_type_0::SimdReduceCmp            0      0.00%     76.45% # Type of FU issued
system.switch_cpus_1.iq.FU_type_0::SimdFloatReduceAdd            0      0.00%     76.45% # Type of FU issued
system.switch_cpus_1.iq.FU_type_0::SimdFloatReduceCmp            0      0.00%     76.45% # Type of FU issued
system.switch_cpus_1.iq.FU_type_0::SimdAes            0      0.00%     76.45% # Type of FU issued
system.switch_cpus_1.iq.FU_type_0::SimdAesMix            0      0.00%     76.45% # Type of FU issued
system.switch_cpus_1.iq.FU_type_0::SimdSha1Hash            0      0.00%     76.45% # Type of FU issued
system.switch_cpus_1.iq.FU_type_0::SimdSha1Hash2            0      0.00%     76.45% # Type of FU issued
system.switch_cpus_1.iq.FU_type_0::SimdSha256Hash            0      0.00%     76.45% # Type of FU issued
system.switch_cpus_1.iq.FU_type_0::SimdSha256Hash2            0      0.00%     76.45% # Type of FU issued
system.switch_cpus_1.iq.FU_type_0::SimdShaSigma2            0      0.00%     76.45% # Type of FU issued
system.switch_cpus_1.iq.FU_type_0::SimdShaSigma3            0      0.00%     76.45% # Type of FU issued
system.switch_cpus_1.iq.FU_type_0::SimdPredAlu            0      0.00%     76.45% # Type of FU issued
system.switch_cpus_1.iq.FU_type_0::MemRead    158194739     18.12%     94.57% # Type of FU issued
system.switch_cpus_1.iq.FU_type_0::MemWrite     47264140      5.41%     99.98% # Type of FU issued
system.switch_cpus_1.iq.FU_type_0::FloatMemRead           69      0.00%     99.98% # Type of FU issued
system.switch_cpus_1.iq.FU_type_0::FloatMemWrite       157236      0.02%    100.00% # Type of FU issued
system.switch_cpus_1.iq.FU_type_0::IprAccess            0      0.00%    100.00% # Type of FU issued
system.switch_cpus_1.iq.FU_type_0::InstPrefetch            0      0.00%    100.00% # Type of FU issued
system.switch_cpus_1.iq.FU_type_0::total    873121746                       # Type of FU issued
system.switch_cpus_1.iq.fp_alu_accesses        309316                       # Number of floating point alu accesses
system.switch_cpus_1.iq.fp_inst_queue_reads       622300                       # Number of floating instruction queue reads
system.switch_cpus_1.iq.fp_inst_queue_wakeup_accesses       242064                       # Number of floating instruction queue wakeup accesses
system.switch_cpus_1.iq.fp_inst_queue_writes       971670                       # Number of floating instruction queue writes
system.switch_cpus_1.iq.fu_busy_cnt           9452962                       # FU busy when requested
system.switch_cpus_1.iq.fu_busy_rate         0.010827                       # FU busy rate (busy events/executed inst)
system.switch_cpus_1.iq.fu_full::No_OpClass            0      0.00%      0.00% # attempts to use FU when none available
system.switch_cpus_1.iq.fu_full::IntAlu       7432640     78.63%     78.63% # attempts to use FU when none available
system.switch_cpus_1.iq.fu_full::IntMult            0      0.00%     78.63% # attempts to use FU when none available
system.switch_cpus_1.iq.fu_full::IntDiv             0      0.00%     78.63% # attempts to use FU when none available
system.switch_cpus_1.iq.fu_full::FloatAdd            0      0.00%     78.63% # attempts to use FU when none available
system.switch_cpus_1.iq.fu_full::FloatCmp            0      0.00%     78.63% # attempts to use FU when none available
system.switch_cpus_1.iq.fu_full::FloatCvt            2      0.00%     78.63% # attempts to use FU when none available
system.switch_cpus_1.iq.fu_full::FloatMult            0      0.00%     78.63% # attempts to use FU when none available
system.switch_cpus_1.iq.fu_full::FloatMultAcc            0      0.00%     78.63% # attempts to use FU when none available
system.switch_cpus_1.iq.fu_full::FloatDiv            0      0.00%     78.63% # attempts to use FU when none available
system.switch_cpus_1.iq.fu_full::FloatMisc            0      0.00%     78.63% # attempts to use FU when none available
system.switch_cpus_1.iq.fu_full::FloatSqrt            0      0.00%     78.63% # attempts to use FU when none available
system.switch_cpus_1.iq.fu_full::SimdAdd            0      0.00%     78.63% # attempts to use FU when none available
system.switch_cpus_1.iq.fu_full::SimdAddAcc            0      0.00%     78.63% # attempts to use FU when none available
system.switch_cpus_1.iq.fu_full::SimdAlu            1      0.00%     78.63% # attempts to use FU when none available
system.switch_cpus_1.iq.fu_full::SimdCmp            0      0.00%     78.63% # attempts to use FU when none available
system.switch_cpus_1.iq.fu_full::SimdCvt            3      0.00%     78.63% # attempts to use FU when none available
system.switch_cpus_1.iq.fu_full::SimdMisc            0      0.00%     78.63% # attempts to use FU when none available
system.switch_cpus_1.iq.fu_full::SimdMult            0      0.00%     78.63% # attempts to use FU when none available
system.switch_cpus_1.iq.fu_full::SimdMultAcc            0      0.00%     78.63% # attempts to use FU when none available
system.switch_cpus_1.iq.fu_full::SimdShift            0      0.00%     78.63% # attempts to use FU when none available
system.switch_cpus_1.iq.fu_full::SimdShiftAcc            0      0.00%     78.63% # attempts to use FU when none available
system.switch_cpus_1.iq.fu_full::SimdDiv            0      0.00%     78.63% # attempts to use FU when none available
system.switch_cpus_1.iq.fu_full::SimdSqrt            0      0.00%     78.63% # attempts to use FU when none available
system.switch_cpus_1.iq.fu_full::SimdFloatAdd            0      0.00%     78.63% # attempts to use FU when none available
system.switch_cpus_1.iq.fu_full::SimdFloatAlu            0      0.00%     78.63% # attempts to use FU when none available
system.switch_cpus_1.iq.fu_full::SimdFloatCmp            0      0.00%     78.63% # attempts to use FU when none available
system.switch_cpus_1.iq.fu_full::SimdFloatCvt            0      0.00%     78.63% # attempts to use FU when none available
system.switch_cpus_1.iq.fu_full::SimdFloatDiv            0      0.00%     78.63% # attempts to use FU when none available
system.switch_cpus_1.iq.fu_full::SimdFloatMisc            0      0.00%     78.63% # attempts to use FU when none available
system.switch_cpus_1.iq.fu_full::SimdFloatMult            0      0.00%     78.63% # attempts to use FU when none available
system.switch_cpus_1.iq.fu_full::SimdFloatMultAcc            0      0.00%     78.63% # attempts to use FU when none available
system.switch_cpus_1.iq.fu_full::SimdFloatSqrt            0      0.00%     78.63% # attempts to use FU when none available
system.switch_cpus_1.iq.fu_full::SimdReduceAdd            0      0.00%     78.63% # attempts to use FU when none available
system.switch_cpus_1.iq.fu_full::SimdReduceAlu            0      0.00%     78.63% # attempts to use FU when none available
system.switch_cpus_1.iq.fu_full::SimdReduceCmp            0      0.00%     78.63% # attempts to use FU when none available
system.switch_cpus_1.iq.fu_full::SimdFloatReduceAdd            0      0.00%     78.63% # attempts to use FU when none available
system.switch_cpus_1.iq.fu_full::SimdFloatReduceCmp            0      0.00%     78.63% # attempts to use FU when none available
system.switch_cpus_1.iq.fu_full::SimdAes            0      0.00%     78.63% # attempts to use FU when none available
system.switch_cpus_1.iq.fu_full::SimdAesMix            0      0.00%     78.63% # attempts to use FU when none available
system.switch_cpus_1.iq.fu_full::SimdSha1Hash            0      0.00%     78.63% # attempts to use FU when none available
system.switch_cpus_1.iq.fu_full::SimdSha1Hash2            0      0.00%     78.63% # attempts to use FU when none available
system.switch_cpus_1.iq.fu_full::SimdSha256Hash            0      0.00%     78.63% # attempts to use FU when none available
system.switch_cpus_1.iq.fu_full::SimdSha256Hash2            0      0.00%     78.63% # attempts to use FU when none available
system.switch_cpus_1.iq.fu_full::SimdShaSigma2            0      0.00%     78.63% # attempts to use FU when none available
system.switch_cpus_1.iq.fu_full::SimdShaSigma3            0      0.00%     78.63% # attempts to use FU when none available
system.switch_cpus_1.iq.fu_full::SimdPredAlu            0      0.00%     78.63% # attempts to use FU when none available
system.switch_cpus_1.iq.fu_full::MemRead      1942319     20.55%     99.17% # attempts to use FU when none available
system.switch_cpus_1.iq.fu_full::MemWrite        77945      0.82%    100.00% # attempts to use FU when none available
system.switch_cpus_1.iq.fu_full::FloatMemRead            4      0.00%    100.00% # attempts to use FU when none available
system.switch_cpus_1.iq.fu_full::FloatMemWrite           48      0.00%    100.00% # attempts to use FU when none available
system.switch_cpus_1.iq.fu_full::IprAccess            0      0.00%    100.00% # attempts to use FU when none available
system.switch_cpus_1.iq.fu_full::InstPrefetch            0      0.00%    100.00% # attempts to use FU when none available
system.switch_cpus_1.iq.int_alu_accesses    879211828                       # Number of integer alu accesses
system.switch_cpus_1.iq.int_inst_queue_reads   2424062135                       # Number of integer instruction queue reads
system.switch_cpus_1.iq.int_inst_queue_wakeup_accesses    825660151                       # Number of integer instruction queue wakeup accesses
system.switch_cpus_1.iq.int_inst_queue_writes   1438988111                       # Number of integer instruction queue writes
system.switch_cpus_1.iq.iqInstsAdded       1015655339                       # Number of instructions added to the IQ (excludes non-spec)
system.switch_cpus_1.iq.iqInstsIssued       873121746                       # Number of instructions issued
system.switch_cpus_1.iq.iqNonSpecInstsAdded          205                       # Number of non-speculative instructions added to the IQ
system.switch_cpus_1.iq.iqSquashedInstsExamined    424265127                       # Number of squashed instructions iterated over during squash; mainly for profiling
system.switch_cpus_1.iq.iqSquashedInstsIssued      2316347                       # Number of squashed instructions issued
system.switch_cpus_1.iq.iqSquashedNonSpecRemoved          199                       # Number of squashed non-spec instructions that were removed
system.switch_cpus_1.iq.iqSquashedOperandsExamined    614649266                       # Number of squashed operands that are examined and possibly removed from graph
system.switch_cpus_1.iq.issued_per_cycle::samples    666671634                       # Number of insts issued each cycle
system.switch_cpus_1.iq.issued_per_cycle::mean     1.309673                       # Number of insts issued each cycle
system.switch_cpus_1.iq.issued_per_cycle::stdev     2.052647                       # Number of insts issued each cycle
system.switch_cpus_1.iq.issued_per_cycle::underflows            0      0.00%      0.00% # Number of insts issued each cycle
system.switch_cpus_1.iq.issued_per_cycle::0    404528443     60.68%     60.68% # Number of insts issued each cycle
system.switch_cpus_1.iq.issued_per_cycle::1     61094075      9.16%     69.84% # Number of insts issued each cycle
system.switch_cpus_1.iq.issued_per_cycle::2     51749684      7.76%     77.61% # Number of insts issued each cycle
system.switch_cpus_1.iq.issued_per_cycle::3     37859102      5.68%     83.28% # Number of insts issued each cycle
system.switch_cpus_1.iq.issued_per_cycle::4     36026962      5.40%     88.69% # Number of insts issued each cycle
system.switch_cpus_1.iq.issued_per_cycle::5     29685709      4.45%     93.14% # Number of insts issued each cycle
system.switch_cpus_1.iq.issued_per_cycle::6     24780821      3.72%     96.86% # Number of insts issued each cycle
system.switch_cpus_1.iq.issued_per_cycle::7     13845026      2.08%     98.93% # Number of insts issued each cycle
system.switch_cpus_1.iq.issued_per_cycle::8      7101812      1.07%    100.00% # Number of insts issued each cycle
system.switch_cpus_1.iq.issued_per_cycle::overflows            0      0.00%    100.00% # Number of insts issued each cycle
system.switch_cpus_1.iq.issued_per_cycle::min_value            0                       # Number of insts issued each cycle
system.switch_cpus_1.iq.issued_per_cycle::max_value            8                       # Number of insts issued each cycle
system.switch_cpus_1.iq.issued_per_cycle::total    666671634                       # Number of insts issued each cycle
system.switch_cpus_1.iq.rate                 1.309590                       # Inst issue rate
system.switch_cpus_1.iq.vec_alu_accesses            0                       # Number of vector alu accesses
system.switch_cpus_1.iq.vec_inst_queue_reads            0                       # Number of vector instruction queue reads
system.switch_cpus_1.iq.vec_inst_queue_wakeup_accesses            0                       # Number of vector instruction queue wakeup accesses
system.switch_cpus_1.iq.vec_inst_queue_writes            0                       # Number of vector instruction queue writes
system.switch_cpus_1.itb.rdAccesses                 0                       # TLB accesses on read requests
system.switch_cpus_1.itb.rdMisses                   0                       # TLB misses on read requests
system.switch_cpus_1.itb.wrAccesses          83248891                       # TLB accesses on write requests
system.switch_cpus_1.itb.wrMisses                 831                       # TLB misses on write requests
system.switch_cpus_1.memDep0.conflictingLoads     30716361                       # Number of conflicting loads.
system.switch_cpus_1.memDep0.conflictingStores     17902481                       # Number of conflicting stores.
system.switch_cpus_1.memDep0.insertedLoads    182009229                       # Number of loads inserted to the mem dependence unit.
system.switch_cpus_1.memDep0.insertedStores     65206092                       # Number of stores inserted to the mem dependence unit.
system.switch_cpus_1.misc_regfile_reads     361752980                       # number of misc regfile reads
system.switch_cpus_1.numCycles              666713615                       # number of cpu cycles simulated
system.switch_cpus_1.numWorkItemsCompleted            0                       # number of work items this cpu completed
system.switch_cpus_1.numWorkItemsStarted            0                       # number of work items this cpu started
system.switch_cpus_1.rename.BlockCycles     275242443                       # Number of cycles rename is blocking
system.switch_cpus_1.rename.CommittedMaps    743940138                       # Number of HB maps that are committed
system.switch_cpus_1.rename.IQFullEvents     46646516                       # Number of times rename has blocked due to IQ full
system.switch_cpus_1.rename.IdleCycles       83191867                       # Number of cycles rename is idle
system.switch_cpus_1.rename.LQFullEvents     23446593                       # Number of times rename has blocked due to LQ full
system.switch_cpus_1.rename.ROBFullEvents      4463192                       # Number of times rename has blocked due to ROB full
system.switch_cpus_1.rename.RenameLookups   2850779358                       # Number of register rename lookups that rename has made
system.switch_cpus_1.rename.RenamedInsts   1121294523                       # Number of instructions processed by rename
system.switch_cpus_1.rename.RenamedOperands   1362508669                       # Number of destination operands rename has renamed
system.switch_cpus_1.rename.RunCycles       146920064                       # Number of cycles rename is running
system.switch_cpus_1.rename.SQFullEvents     73188540                       # Number of times rename has blocked due to SQ full
system.switch_cpus_1.rename.SquashCycles     11042683                       # Number of cycles rename is squashing
system.switch_cpus_1.rename.UnblockCycles    150274175                       # Number of cycles rename is unblocking
system.switch_cpus_1.rename.UndoneMaps      618568531                       # Number of HB maps that are undone due to squashing
system.switch_cpus_1.rename.fp_rename_lookups      2416373                       # Number of floating rename lookups
system.switch_cpus_1.rename.int_rename_lookups   1820359053                       # Number of integer rename lookups
system.switch_cpus_1.rename.serializeStallCycles          392                       # count of cycles rename stalled for serializing inst
system.switch_cpus_1.rename.serializingInsts            9                       # count of serializing insts renamed
system.switch_cpus_1.rename.skidInsts       142680351                       # count of insts added to the skid buffer
system.switch_cpus_1.rename.tempSerializingInsts            9                       # count of temporary serializing insts renamed
system.switch_cpus_1.rob.rob_reads         1585212958                       # The number of ROB reads
system.switch_cpus_1.rob.rob_writes        2095221629                       # The number of ROB writes
system.switch_cpus_1.timesIdled                   345                       # Number of times that the entire CPU went into an idle state and unscheduled itself
system.tol2bus.snoop_filter.hit_multi_requests            0                       # Number of requests hitting in the snoop filter with multiple (>1) holders of the requested data.
system.tol2bus.snoop_filter.hit_multi_snoops            0                       # Number of snoops hitting in the snoop filter with multiple (>1) holders of the requested data.
system.tol2bus.snoop_filter.hit_single_requests      5768527                       # Number of requests hitting in the snoop filter with a single holder of the requested data.
system.tol2bus.snoop_filter.hit_single_snoops        18895                       # Number of snoops hitting in the snoop filter with a single holder of the requested data.
system.tol2bus.snoop_filter.tot_requests     11337762                       # Total number of requests made to the snoop filter.
system.tol2bus.snoop_filter.tot_snoops          18895                       # Total number of snoops made to the snoop filter.
system.tol3bus.snoop_filter.hit_multi_requests            0                       # Number of requests hitting in the snoop filter with multiple (>1) holders of the requested data.
system.tol3bus.snoop_filter.hit_multi_snoops            0                       # Number of snoops hitting in the snoop filter with multiple (>1) holders of the requested data.
system.tol3bus.snoop_filter.hit_single_requests      5002667                       # Number of requests hitting in the snoop filter with a single holder of the requested data.
system.tol3bus.snoop_filter.hit_single_snoops       187851                       # Number of snoops hitting in the snoop filter with a single holder of the requested data.
system.tol3bus.snoop_filter.tot_requests      9918667                       # Total number of requests made to the snoop filter.
system.tol3bus.snoop_filter.tot_snoops         187851                       # Total number of snoops made to the snoop filter.
system.membus.trans_dist::ReadResp            1056242                       # Transaction distribution
system.membus.trans_dist::WritebackDirty       607225                       # Transaction distribution
system.membus.trans_dist::CleanEvict           952837                       # Transaction distribution
system.membus.trans_dist::UpgradeReq               18                       # Transaction distribution
system.membus.trans_dist::ReadExReq            503678                       # Transaction distribution
system.membus.trans_dist::ReadExResp           503678                       # Transaction distribution
system.membus.trans_dist::ReadSharedReq       1056242                       # Transaction distribution
system.membus.pkt_count_system.l3.mem_side::system.mem_ctrls.port      4679920                       # Packet count per connected master and slave (bytes)
system.membus.pkt_count_system.l3.mem_side::total      4679920                       # Packet count per connected master and slave (bytes)
system.membus.pkt_count::total                4679920                       # Packet count per connected master and slave (bytes)
system.membus.pkt_size_system.l3.mem_side::system.mem_ctrls.port    138697280                       # Cumulative packet size per connected master and slave (bytes)
system.membus.pkt_size_system.l3.mem_side::total    138697280                       # Cumulative packet size per connected master and slave (bytes)
system.membus.pkt_size::total               138697280                       # Cumulative packet size per connected master and slave (bytes)
system.membus.snoops                                0                       # Total snoops (count)
system.membus.snoopTraffic                          0                       # Total snoop traffic (bytes)
system.membus.snoop_fanout::samples           1559938                       # Request fanout histogram
system.membus.snoop_fanout::mean                    0                       # Request fanout histogram
system.membus.snoop_fanout::stdev                   0                       # Request fanout histogram
system.membus.snoop_fanout::underflows              0      0.00%      0.00% # Request fanout histogram
system.membus.snoop_fanout::0                 1559938    100.00%    100.00% # Request fanout histogram
system.membus.snoop_fanout::1                       0      0.00%    100.00% # Request fanout histogram
system.membus.snoop_fanout::overflows               0      0.00%    100.00% # Request fanout histogram
system.membus.snoop_fanout::min_value               0                       # Request fanout histogram
system.membus.snoop_fanout::max_value               0                       # Request fanout histogram
system.membus.snoop_fanout::total             1559938                       # Request fanout histogram
system.membus.reqLayer2.occupancy          6017185500                       # Layer occupancy (ticks)
system.membus.reqLayer2.utilization               1.8                       # Layer utilization (%)
system.membus.respLayer1.occupancy         8492012750                       # Layer occupancy (ticks)
system.membus.respLayer1.utilization              2.5                       # Layer utilization (%)
system.membus.power_state.pwrStateResidencyTicks::UNDEFINED 1477040245000                       # Cumulative time (in ticks) in various power states
system.switch_cpus_1.dtb.walker.power_state.pwrStateResidencyTicks::UNDEFINED 1477040245000                       # Cumulative time (in ticks) in various power states
system.switch_cpus_1.itb.walker.power_state.pwrStateResidencyTicks::UNDEFINED 1477040245000                       # Cumulative time (in ticks) in various power states
system.switch_cpus_1.power_state.pwrStateResidencyTicks::OFF 1477040245000                       # Cumulative time (in ticks) in various power states
system.switch_cpus.dtb.walker.power_state.pwrStateResidencyTicks::UNDEFINED 1477040245000                       # Cumulative time (in ticks) in various power states
system.switch_cpus.itb.walker.power_state.pwrStateResidencyTicks::UNDEFINED 1477040245000                       # Cumulative time (in ticks) in various power states
system.switch_cpus.power_state.numTransitions            1                       # Number of power state transitions
system.switch_cpus.power_state.pwrStateResidencyTicks::OFF 1477040245000                       # Cumulative time (in ticks) in various power states
system.tol2bus.trans_dist::ReadResp           4633330                       # Transaction distribution
system.tol2bus.trans_dist::WritebackDirty      1916828                       # Transaction distribution
system.tol2bus.trans_dist::WritebackClean          644                       # Transaction distribution
system.tol2bus.trans_dist::CleanEvict         4622095                       # Transaction distribution
system.tol2bus.trans_dist::UpgradeReq          199287                       # Transaction distribution
system.tol2bus.trans_dist::UpgradeResp         199287                       # Transaction distribution
system.tol2bus.trans_dist::ReadExReq           935907                       # Transaction distribution
system.tol2bus.trans_dist::ReadExResp          935907                       # Transaction distribution
system.tol2bus.trans_dist::ReadCleanReq       4633331                       # Transaction distribution
system.tol2bus.pkt_count_system.cpu.icache.mem_side::system.l2.cpu_side         1933                       # Packet count per connected master and slave (bytes)
system.tol2bus.pkt_count_system.cpu.dcache.mem_side::system.l2.cpu_side     17104353                       # Packet count per connected master and slave (bytes)
system.tol2bus.pkt_count::total              17106286                       # Packet count per connected master and slave (bytes)
system.tol2bus.pkt_size_system.cpu.icache.mem_side::system.l2.cpu_side        82432                       # Cumulative packet size per connected master and slave (bytes)
system.tol2bus.pkt_size_system.cpu.dcache.mem_side::system.l2.cpu_side    429015168                       # Cumulative packet size per connected master and slave (bytes)
system.tol2bus.pkt_size::total              429097600                       # Cumulative packet size per connected master and slave (bytes)
system.tol2bus.snoops                          970330                       # Total snoops (count)
system.tol2bus.snoopTraffic                  50051776                       # Total snoop traffic (bytes)
system.tol2bus.snoop_fanout::samples          6738855                       # Request fanout histogram
system.tol2bus.snoop_fanout::mean            0.002804                       # Request fanout histogram
system.tol2bus.snoop_fanout::stdev           0.052882                       # Request fanout histogram
system.tol2bus.snoop_fanout::underflows             0      0.00%      0.00% # Request fanout histogram
system.tol2bus.snoop_fanout::0                6719957     99.72%     99.72% # Request fanout histogram
system.tol2bus.snoop_fanout::1                  18898      0.28%    100.00% # Request fanout histogram
system.tol2bus.snoop_fanout::2                      0      0.00%    100.00% # Request fanout histogram
system.tol2bus.snoop_fanout::3                      0      0.00%    100.00% # Request fanout histogram
system.tol2bus.snoop_fanout::4                      0      0.00%    100.00% # Request fanout histogram
system.tol2bus.snoop_fanout::overflows              0      0.00%    100.00% # Request fanout histogram
system.tol2bus.snoop_fanout::min_value              0                       # Request fanout histogram
system.tol2bus.snoop_fanout::max_value              1                       # Request fanout histogram
system.tol2bus.snoop_fanout::total            6738855                       # Request fanout histogram
system.tol2bus.reqLayer0.occupancy         6804294000                       # Layer occupancy (ticks)
system.tol2bus.reqLayer0.utilization              2.0                       # Layer utilization (%)
system.tol2bus.respLayer1.occupancy        8452533000                       # Layer occupancy (ticks)
system.tol2bus.respLayer1.utilization             2.5                       # Layer utilization (%)
system.tol2bus.respLayer0.occupancy            966000                       # Layer occupancy (ticks)
system.tol2bus.respLayer0.utilization             0.0                       # Layer utilization (%)
system.tol2bus.power_state.pwrStateResidencyTicks::UNDEFINED 1477040245000                       # Cumulative time (in ticks) in various power states
system.voltage_domain.voltage                       1                       # Voltage in Volts
system.clk_domain.clock                          1000                       # Clock period in ticks
system.l2.demand_hits::.switch_cpus_1.inst           57                       # number of demand (read+write) hits
system.l2.demand_hits::.switch_cpus_1.data       653177                       # number of demand (read+write) hits
system.l2.demand_hits::total                   653234                       # number of demand (read+write) hits
system.l2.overall_hits::.switch_cpus_1.inst           57                       # number of overall hits
system.l2.overall_hits::.switch_cpus_1.data       653177                       # number of overall hits
system.l2.overall_hits::total                  653234                       # number of overall hits
system.l2.demand_misses::.switch_cpus_1.inst          588                       # number of demand (read+write) misses
system.l2.demand_misses::.switch_cpus_1.data      4915416                       # number of demand (read+write) misses
system.l2.demand_misses::total                4916004                       # number of demand (read+write) misses
system.l2.overall_misses::.switch_cpus_1.inst          588                       # number of overall misses
system.l2.overall_misses::.switch_cpus_1.data      4915416                       # number of overall misses
system.l2.overall_misses::total               4916004                       # number of overall misses
system.l2.demand_miss_latency::.switch_cpus_1.inst     58631500                       # number of demand (read+write) miss cycles
system.l2.demand_miss_latency::.switch_cpus_1.data 259375487500                       # number of demand (read+write) miss cycles
system.l2.demand_miss_latency::total     259434119000                       # number of demand (read+write) miss cycles
system.l2.overall_miss_latency::.switch_cpus_1.inst     58631500                       # number of overall miss cycles
system.l2.overall_miss_latency::.switch_cpus_1.data 259375487500                       # number of overall miss cycles
system.l2.overall_miss_latency::total    259434119000                       # number of overall miss cycles
system.l2.demand_accesses::.switch_cpus_1.inst          645                       # number of demand (read+write) accesses
system.l2.demand_accesses::.switch_cpus_1.data      5568593                       # number of demand (read+write) accesses
system.l2.demand_accesses::total              5569238                       # number of demand (read+write) accesses
system.l2.overall_accesses::.switch_cpus_1.inst          645                       # number of overall (read+write) accesses
system.l2.overall_accesses::.switch_cpus_1.data      5568593                       # number of overall (read+write) accesses
system.l2.overall_accesses::total             5569238                       # number of overall (read+write) accesses
[...]
system.cpu.dcache.overall_misses::total      24226789                       # number of overall misses
system.cpu.dcache.demand_miss_latency::.switch_cpus.data  29161403000                       # number of demand (read+write) miss cycles
system.cpu.dcache.demand_miss_latency::.switch_cpus_1.data 434013804424                       # number of demand (read+write) miss cycles
system.cpu.dcache.demand_miss_latency::total 463175207424                       # number of demand (read+write) miss cycles
system.cpu.dcache.overall_miss_latency::.switch_cpus.data  29161403000                       # number of overall miss cycles
system.cpu.dcache.overall_miss_latency::.switch_cpus_1.data 434013804424                       # number of overall miss cycles
system.cpu.dcache.overall_miss_latency::total 463175207424                       # number of overall miss cycles
system.cpu.dcache.demand_accesses::.cpu.data    433795334                       # number of demand (read+write) accesses
system.cpu.dcache.demand_accesses::.switch_cpus.data     21480199                       # number of demand (read+write) accesses
system.cpu.dcache.demand_accesses::.switch_cpus_1.data    168213726                       # number of demand (read+write) accesses
system.cpu.dcache.demand_accesses::total    623489259                       # number of demand (read+write) accesses
system.cpu.dcache.overall_accesses::.cpu.data    433795334                       # number of overall (read+write) accesses
system.cpu.dcache.overall_accesses::.switch_cpus.data     21480199                       # number of overall (read+write) accesses
system.cpu.dcache.overall_accesses::.switch_cpus_1.data    168213726                       # number of overall (read+write) accesses
system.cpu.dcache.overall_accesses::total    623489259                       # number of overall (read+write) accesses
system.cpu.dcache.demand_miss_rate::.cpu.data     0.034799                       # miss rate for demand accesses
system.cpu.dcache.demand_miss_rate::.switch_cpus.data     0.027682                       # miss rate for demand accesses
system.cpu.dcache.demand_miss_rate::.switch_cpus_1.data     0.050748                       # miss rate for demand accesses
system.cpu.dcache.demand_miss_rate::total     0.038857                       # miss rate for demand accesses
system.cpu.dcache.overall_miss_rate::.cpu.data     0.034799                       # miss rate for overall accesses
system.cpu.dcache.overall_miss_rate::.switch_cpus.data     0.027682                       # miss rate for overall accesses
system.cpu.dcache.overall_miss_rate::.switch_cpus_1.data     0.050748                       # miss rate for overall accesses
system.cpu.dcache.overall_miss_rate::total     0.038857                       # miss rate for overall accesses
system.cpu.dcache.demand_avg_miss_latency::.switch_cpus.data 49043.072074                       # average overall miss latency
system.cpu.dcache.demand_avg_miss_latency::.switch_cpus_1.data 50842.006394                       # average overall miss latency
system.cpu.dcache.demand_avg_miss_latency::total 19118.307731                       # average overall miss latency
system.cpu.dcache.overall_avg_miss_latency::.switch_cpus.data 49043.072074                       # average overall miss latency
system.cpu.dcache.overall_avg_miss_latency::.switch_cpus_1.data 50842.006394                       # average overall miss latency
system.cpu.dcache.overall_avg_miss_latency::total 19118.307731                       # average overall miss latency
system.cpu.dcache.blocked_cycles::no_mshrs     27552324                       # number of cycles access was blocked
system.cpu.dcache.blocked_cycles::no_targets         1322                       # number of cycles access was blocked
system.cpu.dcache.blocked::no_mshrs           1144972                       # number of cycles access was blocked
system.cpu.dcache.blocked::no_targets              14                       # number of cycles access was blocked
system.cpu.dcache.avg_blocked_cycles::no_mshrs    24.063754                       # average number of cycles each access was blocked
system.cpu.dcache.avg_blocked_cycles::no_targets    94.428571                       # average number of cycles each access was blocked
system.cpu.dcache.writebacks::.writebacks      5763078                       # number of writebacks
system.cpu.dcache.writebacks::total           5763078                       # number of writebacks
system.cpu.dcache.demand_mshr_hits::.switch_cpus_1.data      2768658                       # number of demand (read+write) MSHR hits
system.cpu.dcache.demand_mshr_hits::total      2768658                       # number of demand (read+write) MSHR hits
system.cpu.dcache.overall_mshr_hits::.switch_cpus_1.data      2768658                       # number of overall MSHR hits
system.cpu.dcache.overall_mshr_hits::total      2768658                       # number of overall MSHR hits
system.cpu.dcache.demand_mshr_misses::.switch_cpus.data       594608                       # number of demand (read+write) MSHR misses
system.cpu.dcache.demand_mshr_misses::.switch_cpus_1.data      5767862                       # number of demand (read+write) MSHR misses
system.cpu.dcache.demand_mshr_misses::total      6362470                       # number of demand (read+write) MSHR misses
system.cpu.dcache.overall_mshr_misses::.switch_cpus.data       594608                       # number of overall MSHR misses
system.cpu.dcache.overall_mshr_misses::.switch_cpus_1.data      5767862                       # number of overall MSHR misses
system.cpu.dcache.overall_mshr_misses::total      6362470                       # number of overall MSHR misses
system.cpu.dcache.demand_mshr_miss_latency::.switch_cpus.data  28566795000                       # number of demand (read+write) MSHR miss cycles
system.cpu.dcache.demand_mshr_miss_latency::.switch_cpus_1.data 278216728924                       # number of demand (read+write) MSHR miss cycles
system.cpu.dcache.demand_mshr_miss_latency::total 306783523924                       # number of demand (read+write) MSHR miss cycles
system.cpu.dcache.overall_mshr_miss_latency::.switch_cpus.data  28566795000                       # number of overall MSHR miss cycles
system.cpu.dcache.overall_mshr_miss_latency::.switch_cpus_1.data 278216728924                       # number of overall MSHR miss cycles
system.cpu.dcache.overall_mshr_miss_latency::total 306783523924                       # number of overall MSHR miss cycles
system.cpu.dcache.demand_mshr_miss_rate::.switch_cpus.data     0.027682                       # mshr miss rate for demand accesses
system.cpu.dcache.demand_mshr_miss_rate::.switch_cpus_1.data     0.034289                       # mshr miss rate for demand accesses
system.cpu.dcache.demand_mshr_miss_rate::total     0.010205                       # mshr miss rate for demand accesses
system.cpu.dcache.overall_mshr_miss_rate::.switch_cpus.data     0.027682                       # mshr miss rate for overall accesses
system.cpu.dcache.overall_mshr_miss_rate::.switch_cpus_1.data     0.034289                       # mshr miss rate for overall accesses
system.cpu.dcache.overall_mshr_miss_rate::total     0.010205                       # mshr miss rate for overall accesses
system.cpu.dcache.demand_avg_mshr_miss_latency::.switch_cpus.data 48043.072074                       # average overall mshr miss latency
system.cpu.dcache.demand_avg_mshr_miss_latency::.switch_cpus_1.data 48235.677089                       # average overall mshr miss latency
system.cpu.dcache.demand_avg_mshr_miss_latency::total 48217.677085                       # average overall mshr miss latency
system.cpu.dcache.overall_avg_mshr_miss_latency::.switch_cpus.data 48043.072074                       # average overall mshr miss latency
system.cpu.dcache.overall_avg_mshr_miss_latency::.switch_cpus_1.data 48235.677089                       # average overall mshr miss latency
system.cpu.dcache.overall_avg_mshr_miss_latency::total 48217.677085                       # average overall mshr miss latency
system.cpu.dcache.replacements               19762875                       # number of replacements
system.cpu.dcache.ReadReq_hits::.cpu.data    311145526                       # number of ReadReq hits
system.cpu.dcache.ReadReq_hits::.switch_cpus.data     17716162                       # number of ReadReq hits
system.cpu.dcache.ReadReq_hits::.switch_cpus_1.data    126016038                       # number of ReadReq hits
system.cpu.dcache.ReadReq_hits::total       454877726                       # number of ReadReq hits
system.cpu.dcache.ReadReq_misses::.cpu.data     10610433                       # number of ReadReq misses
system.cpu.dcache.ReadReq_misses::.switch_cpus.data       451504                       # number of ReadReq misses
system.cpu.dcache.ReadReq_misses::.switch_cpus_1.data      7401326                       # number of ReadReq misses
system.cpu.dcache.ReadReq_misses::total      18463263                       # number of ReadReq misses
system.cpu.dcache.ReadReq_miss_latency::.switch_cpus.data  20808348000                       # number of ReadReq miss cycles
system.cpu.dcache.ReadReq_miss_latency::.switch_cpus_1.data 367838106500                       # number of ReadReq miss cycles
system.cpu.dcache.ReadReq_miss_latency::total 388646454500                       # number of ReadReq miss cycles
system.cpu.dcache.ReadReq_accesses::.cpu.data    321755959                       # number of ReadReq accesses(hits+misses)
system.cpu.dcache.ReadReq_accesses::.switch_cpus.data     18167666                       # number of ReadReq accesses(hits+misses)
system.cpu.dcache.ReadReq_accesses::.switch_cpus_1.data    133417364                       # number of ReadReq accesses(hits+misses)
system.cpu.dcache.ReadReq_accesses::total    473340989                       # number of ReadReq accesses(hits+misses)
system.cpu.dcache.ReadReq_miss_rate::.cpu.data     0.032977                       # miss rate for ReadReq accesses
system.cpu.dcache.ReadReq_miss_rate::.switch_cpus.data     0.024852                       # miss rate for ReadReq accesses
system.cpu.dcache.ReadReq_miss_rate::.switch_cpus_1.data     0.055475                       # miss rate for ReadReq accesses
system.cpu.dcache.ReadReq_miss_rate::total     0.039006                       # miss rate for ReadReq accesses
system.cpu.dcache.ReadReq_avg_miss_latency::.switch_cpus.data 46086.741203                       # average ReadReq miss latency
system.cpu.dcache.ReadReq_avg_miss_latency::.switch_cpus_1.data 49698.946716                       # average ReadReq miss latency
system.cpu.dcache.ReadReq_avg_miss_latency::total 21049.716645                       # average ReadReq miss latency
system.cpu.dcache.ReadReq_mshr_hits::.switch_cpus_1.data      2768637                       # number of ReadReq MSHR hits
system.cpu.dcache.ReadReq_mshr_hits::total      2768637                       # number of ReadReq MSHR hits
system.cpu.dcache.ReadReq_mshr_misses::.switch_cpus.data       451504                       # number of ReadReq MSHR misses
system.cpu.dcache.ReadReq_mshr_misses::.switch_cpus_1.data      4632689                       # number of ReadReq MSHR misses
system.cpu.dcache.ReadReq_mshr_misses::total      5084193                       # number of ReadReq MSHR misses
system.cpu.dcache.ReadReq_mshr_miss_latency::.switch_cpus.data  20356844000                       # number of ReadReq MSHR miss cycles
system.cpu.dcache.ReadReq_mshr_miss_latency::.switch_cpus_1.data 213176262500                       # number of ReadReq MSHR miss cycles
system.cpu.dcache.ReadReq_mshr_miss_latency::total 233533106500                       # number of ReadReq MSHR miss cycles
system.cpu.dcache.ReadReq_mshr_miss_rate::.switch_cpus.data     0.024852                       # mshr miss rate for ReadReq accesses
system.cpu.dcache.ReadReq_mshr_miss_rate::.switch_cpus_1.data     0.034723                       # mshr miss rate for ReadReq accesses
system.cpu.dcache.ReadReq_mshr_miss_rate::total     0.010741                       # mshr miss rate for ReadReq accesses
system.cpu.dcache.ReadReq_avg_mshr_miss_latency::.switch_cpus.data 45086.741203                       # average ReadReq mshr miss latency
system.cpu.dcache.ReadReq_avg_mshr_miss_latency::.switch_cpus_1.data 46015.664445                       # average ReadReq mshr miss latency
system.cpu.dcache.ReadReq_avg_mshr_miss_latency::total 45933.171007                       # average ReadReq mshr miss latency
system.cpu.dcache.WriteReq_hits::.cpu.data    107554147                       # number of WriteReq hits
system.cpu.dcache.WriteReq_hits::.switch_cpus.data      3169429                       # number of WriteReq hits
system.cpu.dcache.WriteReq_hits::.switch_cpus_1.data     33661168                       # number of WriteReq hits
system.cpu.dcache.WriteReq_hits::total      144384744                       # number of WriteReq hits
system.cpu.dcache.WriteReq_misses::.cpu.data      4485228                       # number of WriteReq misses
system.cpu.dcache.WriteReq_misses::.switch_cpus.data       143104                       # number of WriteReq misses
system.cpu.dcache.WriteReq_misses::.switch_cpus_1.data      1135194                       # number of WriteReq misses
system.cpu.dcache.WriteReq_misses::total      5763526                       # number of WriteReq misses
system.cpu.dcache.WriteReq_miss_latency::.switch_cpus.data   8353055000                       # number of WriteReq miss cycles
system.cpu.dcache.WriteReq_miss_latency::.switch_cpus_1.data  66175697924                       # number of WriteReq miss cycles
system.cpu.dcache.WriteReq_miss_latency::total  74528752924                       # number of WriteReq miss cycles
system.cpu.dcache.WriteReq_accesses::.cpu.data    112039375                       # number of WriteReq accesses(hits+misses)
system.cpu.dcache.WriteReq_accesses::.switch_cpus.data      3312533                       # number of WriteReq accesses(hits+misses)
system.cpu.dcache.WriteReq_accesses::.switch_cpus_1.data     34796362                       # number of WriteReq accesses(hits+misses)
system.cpu.dcache.WriteReq_accesses::total    150148270                       # number of WriteReq accesses(hits+misses)
system.cpu.dcache.WriteReq_miss_rate::.cpu.data     0.040033                       # miss rate for WriteReq accesses
system.cpu.dcache.WriteReq_miss_rate::.switch_cpus.data     0.043201                       # miss rate for WriteReq accesses
system.cpu.dcache.WriteReq_miss_rate::.switch_cpus_1.data     0.032624                       # miss rate for WriteReq accesses
system.cpu.dcache.WriteReq_miss_rate::total     0.038386                       # miss rate for WriteReq accesses
system.cpu.dcache.WriteReq_avg_miss_latency::.switch_cpus.data 58370.520740                       # average WriteReq miss latency
system.cpu.dcache.WriteReq_avg_miss_latency::.switch_cpus_1.data 58294.615655                       # average WriteReq miss latency
system.cpu.dcache.WriteReq_avg_miss_latency::total 12931.103794                       # average WriteReq miss latency
system.cpu.dcache.WriteReq_mshr_hits::.switch_cpus_1.data           21                       # number of WriteReq MSHR hits
system.cpu.dcache.WriteReq_mshr_hits::total           21                       # number of WriteReq MSHR hits
system.cpu.dcache.WriteReq_mshr_misses::.switch_cpus.data       143104                       # number of WriteReq MSHR misses
system.cpu.dcache.WriteReq_mshr_misses::.switch_cpus_1.data      1135173                       # number of WriteReq MSHR misses
system.cpu.dcache.WriteReq_mshr_misses::total      1278277                       # number of WriteReq MSHR misses
system.cpu.dcache.WriteReq_mshr_miss_latency::.switch_cpus.data   8209951000                       # number of WriteReq MSHR miss cycles
system.cpu.dcache.WriteReq_mshr_miss_latency::.switch_cpus_1.data  65040466424                       # number of WriteReq MSHR miss cycles
system.cpu.dcache.WriteReq_mshr_miss_latency::total  73250417424                       # number of WriteReq MSHR miss cycles
system.cpu.dcache.WriteReq_mshr_miss_rate::.switch_cpus.data     0.043201                       # mshr miss rate for WriteReq accesses
system.cpu.dcache.WriteReq_mshr_miss_rate::.switch_cpus_1.data     0.032623                       # mshr miss rate for WriteReq accesses
system.cpu.dcache.WriteReq_mshr_miss_rate::total     0.008513                       # mshr miss rate for WriteReq accesses
system.cpu.dcache.WriteReq_avg_mshr_miss_latency::.switch_cpus.data 57370.520740                       # average WriteReq mshr miss latency
system.cpu.dcache.WriteReq_avg_mshr_miss_latency::.switch_cpus_1.data 57295.642536                       # average WriteReq mshr miss latency
system.cpu.dcache.WriteReq_avg_mshr_miss_latency::total 57304.025203                       # average WriteReq mshr miss latency
system.cpu.dcache.power_state.pwrStateResidencyTicks::UNDEFINED 1477040245000                       # Cumulative time (in ticks) in various power states
system.cpu.dcache.tags.tagsinuse           511.996020                       # Cycle average of tags in use
system.cpu.dcache.tags.total_refs           620896417                       # Total number of references to valid blocks.
system.cpu.dcache.tags.sampled_refs          19763387                       # Sample count of references to valid blocks.
system.cpu.dcache.tags.avg_refs             31.416498                       # Average number of references to valid blocks.
system.cpu.dcache.tags.warmup_cycle              1500                       # Cycle when the warmup percentage was hit.
system.cpu.dcache.tags.occ_blocks::.cpu.data   355.779364                       # Average occupied blocks per requestor
system.cpu.dcache.tags.occ_blocks::.switch_cpus.data    40.668702                       # Average occupied blocks per requestor
system.cpu.dcache.tags.occ_blocks::.switch_cpus_1.data   115.547954                       # Average occupied blocks per requestor
system.cpu.dcache.tags.occ_percent::.cpu.data     0.694882                       # Average percentage of cache occupancy
system.cpu.dcache.tags.occ_percent::.switch_cpus.data     0.079431                       # Average percentage of cache occupancy
system.cpu.dcache.tags.occ_percent::.switch_cpus_1.data     0.225680                       # Average percentage of cache occupancy
system.cpu.dcache.tags.occ_percent::total     0.999992                       # Average percentage of cache occupancy
system.cpu.dcache.tags.occ_task_id_blocks::1024          512                       # Occupied blocks per task id
system.cpu.dcache.tags.age_task_id_blocks_1024::0          143                       # Occupied blocks per task id
system.cpu.dcache.tags.age_task_id_blocks_1024::1          369                       # Occupied blocks per task id
system.cpu.dcache.tags.occ_task_id_percent::1024            1                       # Percentage of cache occupancy per task id
system.cpu.dcache.tags.tag_accesses        2513720423                       # Number of tag accesses
system.cpu.dcache.tags.data_accesses       2513720423                       # Number of data accesses
system.cpu.dcache.tags.power_state.pwrStateResidencyTicks::UNDEFINED 1477040245000                       # Cumulative time (in ticks) in various power states
system.cpu.power_state.numTransitions               2                       # Number of power state transitions
system.cpu.power_state.pwrStateResidencyTicks::ON 1026110788500                       # Cumulative time (in ticks) in various power states
system.cpu.power_state.pwrStateResidencyTicks::OFF 450929456500                       # Cumulative time (in ticks) in various power states

---------- End Simulation Statistics   ----------
