
---------- Begin Simulation Statistics ----------
final_tick                               1940716811500                       # Number of ticks from beginning of simulation (restored from checkpoints and never reset)
host_inst_rate                                 105714                       # Simulator instruction rate (inst/s)
host_mem_usage                                4564444                       # Number of bytes of host memory used
host_op_rate                                   200110                       # Simulator op (including micro ops) rate (op/s)
host_seconds                                 19391.90                       # Real time elapsed on the host
host_tick_rate                               37633324                       # Simulator tick rate (ticks/s)
sim_freq                                 1000000000000                       # Frequency of simulated ticks
sim_insts                                  2050000007                       # Number of instructions simulated
sim_ops                                    3880515037                       # Number of ops (including micro ops) simulated
sim_seconds                                  0.729782                       # Number of seconds simulated
sim_ticks                                729781835250                       # Number of ticks simulated
system.cpu.committedInsts                           0                       # Number of instructions committed
system.cpu.committedOps                             0                       # Number of ops (including micro ops) committed
system.cpu.dtb.rdAccesses                           0                       # TLB accesses on read requests
system.cpu.dtb.rdMisses                             0                       # TLB misses on read requests
system.cpu.dtb.wrAccesses                           0                       # TLB accesses on write requests
system.cpu.dtb.wrMisses                             0                       # TLB misses on write requests
system.cpu.idle_fraction                            0                       # Percentage of idle cycles
system.cpu.itb.rdAccesses                           0                       # TLB accesses on read requests
system.cpu.itb.rdMisses                             0                       # TLB misses on read requests
system.cpu.itb.wrAccesses                           0                       # TLB accesses on write requests
system.cpu.itb.wrMisses                             0                       # TLB misses on write requests
system.cpu.not_idle_fraction                        1                       # Percentage of non-idle cycles
system.cpu.numCycles                                0                       # number of cpu cycles simulated
system.cpu.numWorkItemsCompleted                    0                       # number of work items this cpu completed
system.cpu.numWorkItemsStarted                      0                       # number of work items this cpu started
system.cpu.num_busy_cycles                          0                       # Number of busy cycles
system.cpu.num_conditional_control_insts            0                       # number of instructions that are conditional controls
system.cpu.num_fp_alu_accesses                      0                       # Number of float alu accesses
system.cpu.num_fp_insts                             0                       # number of float instructions
system.cpu.num_fp_register_reads                    0                       # number of times the floating registers were read
system.cpu.num_fp_register_writes                   0                       # number of times the floating registers were written
system.cpu.num_func_calls                           0                       # number of times a function call or return occured
system.cpu.num_idle_cycles                          0                       # Number of idle cycles
system.cpu.num_int_alu_accesses                     0                       # Number of integer alu accesses
system.cpu.num_int_insts                            0                       # number of integer instructions
system.cpu.num_int_register_reads                   0                       # number of times the integer registers were read
system.cpu.num_int_register_writes                  0                       # number of times the integer registers were written
system.cpu.num_load_insts                           0                       # Number of load instructions
system.cpu.num_mem_refs                             0                       # number of memory refs
system.cpu.num_store_insts                          0                       # Number of store instructions
system.cpu.num_vec_alu_accesses                     0                       # Number of vector alu accesses
system.cpu.num_vec_insts                            0                       # number of vector instructions
system.cpu.num_vec_register_reads                   0                       # number of times the vector registers were read
system.cpu.num_vec_register_writes                  0                       # number of times the vector registers were written
system.cpu.op_class::No_OpClass                     0                       # Class of executed instruction
system.cpu.op_class::IntAlu                         0                       # Class of executed instruction
system.cpu.op_class::IntMult                        0                       # Class of executed instruction
system.cpu.op_class::IntDiv                         0                       # Class of executed instruction
system.cpu.op_class::FloatAdd                       0                       # Class of executed instruction
system.cpu.op_class::FloatCmp                       0                       # Class of executed instruction
system.cpu.op_class::FloatCvt                       0                       # Class of executed instruction
system.cpu.op_class::FloatMult                      0                       # Class of executed instruction
system.cpu.op_class::FloatMultAcc                   0                       # Class of executed instruction
system.cpu.op_class::FloatDiv                       0                       # Class of executed instruction
system.cpu.op_class::FloatMisc                      0                       # Class of executed instruction
system.cpu.op_class::FloatSqrt                      0                       # Class of executed instruction
system.cpu.op_class::SimdAdd                        0                       # Class of executed instruction
system.cpu.op_class::SimdAddAcc                     0                       # Class of executed instruction
system.cpu.op_class::SimdAlu                        0                       # Class of executed instruction
system.cpu.op_class::SimdCmp                        0                       # Class of executed instruction
system.cpu.op_class::SimdCvt                        0                       # Class of executed instruction
system.cpu.op_class::SimdMisc                       0                       # Class of executed instruction
system.cpu.op_class::SimdMult                       0                       # Class of executed instruction
system.cpu.op_class::SimdMultAcc                    0                       # Class of executed instruction
system.cpu.op_class::SimdShift                      0                       # Class of executed instruction
system.cpu.op_class::SimdShiftAcc                   0                       # Class of executed instruction
system.cpu.op_class::SimdDiv                        0                       # Class of executed instruction
system.cpu.op_class::SimdSqrt                       0                       # Class of executed instruction
system.cpu.op_class::SimdFloatAdd                   0                       # Class of executed instruction
system.cpu.op_class::SimdFloatAlu                   0                       # Class of executed instruction
system.cpu.op_class::SimdFloatCmp                   0                       # Class of executed instruction
system.cpu.op_class::SimdFloatCvt                   0                       # Class of executed instruction
system.cpu.op_class::SimdFloatDiv                   0                       # Class of executed instruction
system.cpu.op_class::SimdFloatMisc                  0                       # Class of executed instruction
system.cpu.op_class::SimdFloatMult                  0                       # Class of executed instruction
system.cpu.op_class::SimdFloatMultAcc               0                       # Class of executed instruction
system.cpu.op_class::SimdFloatSqrt                  0                       # Class of executed instruction
system.cpu.op_class::SimdReduceAdd                  0                       # Class of executed instruction
system.cpu.op_class::SimdReduceAlu                  0                       # Class of executed instruction
system.cpu.op_class::SimdReduceCmp                  0                       # Class of executed instruction
system.cpu.op_class::SimdFloatReduceAdd             0                       # Class of executed instruction
system.cpu.op_class::SimdFloatReduceCmp             0                       # Class of executed instruction
system.cpu.op_class::SimdAes                        0                       # Class of executed instruction
system.cpu.op_class::SimdAesMix                     0                       # Class of executed instruction
system.cpu.op_class::SimdSha1Hash                   0                       # Class of executed instruction
system.cpu.op_class::SimdSha1Hash2                  0                       # Class of executed instruction
system.cpu.op_class::SimdSha256Hash                 0                       # Class of executed instruction
system.cpu.op_class::SimdSha256Hash2                0                       # Class of executed instruction
system.cpu.op_class::SimdShaSigma2                  0                       # Class of executed instruction
system.cpu.op_class::SimdShaSigma3                  0                       # Class of executed instruction
system.cpu.op_class::SimdPredAlu                    0                       # Class of executed instruction
system.cpu.op_class::MemRead                        0                       # Class of executed instruction
system.cpu.op_class::MemWrite                       0                       # Class of executed instruction
system.cpu.op_class::FloatMemRead                   0                       # Class of executed instruction
system.cpu.op_class::FloatMemWrite                  0                       # Class of executed instruction
system.cpu.op_class::IprAccess                      0                       # Class of executed instruction
system.cpu.op_class::InstPrefetch                   0                       # Class of executed instruction
system.cpu.op_class::total                          0                       # Class of executed instruction
system.cpu.workload.numSyscalls                    12                       # Number of system calls
system.membus.snoop_filter.hit_multi_requests            0                       # Number of requests hitting in the snoop filter with multiple (>1) holders of the requested data.
system.membus.snoop_filter.hit_multi_snoops            0                       # Number of snoops hitting in the snoop filter with multiple (>1) holders of the requested data.
system.membus.snoop_filter.hit_single_requests       358513                       # Number of requests hitting in the snoop filter with a single holder of the requested data.
system.membus.snoop_filter.hit_single_snoops            0                       # Number of snoops hitting in the snoop filter with a single holder of the requested data.
system.membus.snoop_filter.tot_requests        717020                       # Total number of requests made to the snoop filter.
system.membus.snoop_filter.tot_snoops               0                       # Total number of snoops made to the snoop filter.
system.switch_cpus.committedInsts                   0                       # Number of instructions committed
system.switch_cpus.committedOps                     0                       # Number of ops (including micro ops) committed
system.switch_cpus.dtb.rdAccesses                   0                       # TLB accesses on read requests
system.switch_cpus.dtb.rdMisses                     0                       # TLB misses on read requests
system.switch_cpus.dtb.wrAccesses                   0                       # TLB accesses on write requests
system.switch_cpus.dtb.wrMisses                     0                       # TLB misses on write requests
system.switch_cpus.idle_fraction                    0                       # Percentage of idle cycles
system.switch_cpus.itb.rdAccesses                   0                       # TLB accesses on read requests
system.switch_cpus.itb.rdMisses                     0                       # TLB misses on read requests
system.switch_cpus.itb.wrAccesses                   0                       # TLB accesses on write requests
system.switch_cpus.itb.wrMisses                     0                       # TLB misses on write requests
system.switch_cpus.not_idle_fraction                1                       # Percentage of non-idle cycles
system.switch_cpus.numCycles                        0                       # number of cpu cycles simulated
system.switch_cpus.numWorkItemsCompleted            0                       # number of work items this cpu completed
system.switch_cpus.numWorkItemsStarted              0                       # number of work items this cpu started
system.switch_cpus.num_busy_cycles                  0                       # Number of busy cycles
system.switch_cpus.num_conditional_control_insts            0                       # number of instructions that are conditional controls
system.switch_cpus.num_fp_alu_accesses              0                       # Number of float alu accesses
system.switch_cpus.num_fp_insts                     0                       # number of float instructions
system.switch_cpus.num_fp_register_reads            0                       # number of times the floating registers were read
system.switch_cpus.num_fp_register_writes            0                       # number of times the floating registers were written
system.switch_cpus.num_func_calls                   0                       # number of times a function call or return occured
system.switch_cpus.num_idle_cycles                  0                       # Number of idle cycles
system.switch_cpus.num_int_alu_accesses             0                       # Number of integer alu accesses
system.switch_cpus.num_int_insts                    0                       # number of integer instructions
system.switch_cpus.num_int_register_reads            0                       # number of times the integer registers were read
system.switch_cpus.num_int_register_writes            0                       # number of times the integer registers were written
system.switch_cpus.num_load_insts                   0                       # Number of load instructions
system.switch_cpus.num_mem_refs                     0                       # number of memory refs
system.switch_cpus.num_store_insts                  0                       # Number of store instructions
system.switch_cpus.num_vec_alu_accesses             0                       # Number of vector alu accesses
system.switch_cpus.num_vec_insts                    0                       # number of vector instructions
system.switch_cpus.num_vec_register_reads            0                       # number of times the vector registers were read
system.switch_cpus.num_vec_register_writes            0                       # number of times the vector registers were written
system.switch_cpus.op_class::No_OpClass             0                       # Class of executed instruction
system.switch_cpus.op_class::IntAlu                 0                       # Class of executed instruction
system.switch_cpus.op_class::IntMult                0                       # Class of executed instruction
system.switch_cpus.op_class::IntDiv                 0                       # Class of executed instruction
system.switch_cpus.op_class::FloatAdd               0                       # Class of executed instruction
system.switch_cpus.op_class::FloatCmp               0                       # Class of executed instruction
system.switch_cpus.op_class::FloatCvt               0                       # Class of executed instruction
system.switch_cpus.op_class::FloatMult              0                       # Class of executed instruction
system.switch_cpus.op_class::FloatMultAcc            0                       # Class of executed instruction
system.switch_cpus.op_class::FloatDiv               0                       # Class of executed instruction
system.switch_cpus.op_class::FloatMisc              0                       # Class of executed instruction
system.switch_cpus.op_class::FloatSqrt              0                       # Class of executed instruction
system.switch_cpus.op_class::SimdAdd                0                       # Class of executed instruction
system.switch_cpus.op_class::SimdAddAcc             0                       # Class of executed instruction
system.switch_cpus.op_class::SimdAlu                0                       # Class of executed instruction
system.switch_cpus.op_class::SimdCmp                0                       # Class of executed instruction
system.switch_cpus.op_class::SimdCvt                0                       # Class of executed instruction
system.switch_cpus.op_class::SimdMisc               0                       # Class of executed instruction
system.switch_cpus.op_class::SimdMult               0                       # Class of executed instruction
system.switch_cpus.op_class::SimdMultAcc            0                       # Class of executed instruction
system.switch_cpus.op_class::SimdShift              0                       # Class of executed instruction
system.switch_cpus.op_class::SimdShiftAcc            0                       # Class of executed instruction
system.switch_cpus.op_class::SimdDiv                0                       # Class of executed instruction
system.switch_cpus.op_class::SimdSqrt               0                       # Class of executed instruction
system.switch_cpus.op_class::SimdFloatAdd            0                       # Class of executed instruction
system.switch_cpus.op_class::SimdFloatAlu            0                       # Class of executed instruction
system.switch_cpus.op_class::SimdFloatCmp            0                       # Class of executed instruction
system.switch_cpus.op_class::SimdFloatCvt            0                       # Class of executed instruction
system.switch_cpus.op_class::SimdFloatDiv            0                       # Class of executed instruction
system.switch_cpus.op_class::SimdFloatMisc            0                       # Class of executed instruction
system.switch_cpus.op_class::SimdFloatMult            0                       # Class of executed instruction
system.switch_cpus.op_class::SimdFloatMultAcc            0                       # Class of executed instruction
system.switch_cpus.op_class::SimdFloatSqrt            0                       # Class of executed instruction
system.switch_cpus.op_class::SimdReduceAdd            0                       # Class of executed instruction
system.switch_cpus.op_class::SimdReduceAlu            0                       # Class of executed instruction
system.switch_cpus.op_class::SimdReduceCmp            0                       # Class of executed instruction
system.switch_cpus.op_class::SimdFloatReduceAdd            0                       # Class of executed instruction
system.switch_cpus.op_class::SimdFloatReduceCmp            0                       # Class of executed instruction
system.switch_cpus.op_class::SimdAes                0                       # Class of executed instruction
system.switch_cpus.op_class::SimdAesMix             0                       # Class of executed instruction
system.switch_cpus.op_class::SimdSha1Hash            0                       # Class of executed instruction
system.switch_cpus.op_class::SimdSha1Hash2            0                       # Class of executed instruction
system.switch_cpus.op_class::SimdSha256Hash            0                       # Class of executed instruction
system.switch_cpus.op_class::SimdSha256Hash2            0                       # Class of executed instruction
system.switch_cpus.op_class::SimdShaSigma2            0                       # Class of executed instruction
system.switch_cpus.op_class::SimdShaSigma3            0                       # Class of executed instruction
system.switch_cpus.op_class::SimdPredAlu            0                       # Class of executed instruction
system.switch_cpus.op_class::MemRead                0                       # Class of executed instruction
system.switch_cpus.op_class::MemWrite               0                       # Class of executed instruction
system.switch_cpus.op_class::FloatMemRead            0                       # Class of executed instruction
system.switch_cpus.op_class::FloatMemWrite            0                       # Class of executed instruction
system.switch_cpus.op_class::IprAccess              0                       # Class of executed instruction
system.switch_cpus.op_class::InstPrefetch            0                       # Class of executed instruction
system.switch_cpus.op_class::total                  0                       # Class of executed instruction
system.switch_cpus_1.branchPred.BTBCorrect            0                       # Number of correct BTB predictions (this stat may not work properly.
system.switch_cpus_1.branchPred.BTBHitPct          nan                       # BTB Hit Percentage
system.switch_cpus_1.branchPred.BTBHits             0                       # Number of BTB hits
system.switch_cpus_1.branchPred.BTBLookups            0                       # Number of BTB lookups
system.switch_cpus_1.branchPred.RASInCorrect        13035                       # Number of incorrect RAS predictions.
system.switch_cpus_1.branchPred.condIncorrect     81902500                       # Number of conditional branches incorrect
system.switch_cpus_1.branchPred.condPredicted    619289271                       # Number of conditional branches predicted
system.switch_cpus_1.branchPred.indirectHits     90226284                       # Number of indirect target hits.
system.switch_cpus_1.branchPred.indirectLookups    391071099                       # Number of indirect predictor lookups.
system.switch_cpus_1.branchPred.indirectMisses    300844815                       # Number of indirect misses.
system.switch_cpus_1.branchPred.lookups     721774501                       # Number of BP lookups
system.switch_cpus_1.branchPred.usedRAS      32518435                       # Number of times the RAS was used to get a target.
system.switch_cpus_1.branchPredindirectMispredicted     63263443                       # Number of mispredicted indirect branches.
system.switch_cpus_1.cc_regfile_reads      1500122262                       # number of cc regfile reads
system.switch_cpus_1.cc_regfile_writes     1020759195                       # number of cc regfile writes
system.switch_cpus_1.commit.amos                    0                       # Number of atomic instructions committed
system.switch_cpus_1.commit.branchMispredicts     81902509                       # The number of times a branch was mispredicted
system.switch_cpus_1.commit.branches        229908759                       # Number of branches committed
system.switch_cpus_1.commit.bw_lim_events    118177294                       # number cycles where commit BW limit reached
system.switch_cpus_1.commit.commitNonSpecStalls           48                       # The number of times commit has been forced to stall to communicate backwards
system.switch_cpus_1.commit.commitSquashedInsts   2266725359                       # The number of squashed insts skipped by commit
system.switch_cpus_1.commit.committedInsts   1000000004                       # Number of instructions committed
system.switch_cpus_1.commit.committedOps   1892299055                       # Number of ops (including micro ops) committed
system.switch_cpus_1.commit.committed_per_cycle::samples   1096721322                       # Number of insts commited each cycle
system.switch_cpus_1.commit.committed_per_cycle::mean     1.725415                       # Number of insts commited each cycle
system.switch_cpus_1.commit.committed_per_cycle::stdev     2.668060                       # Number of insts commited each cycle
system.switch_cpus_1.commit.committed_per_cycle::underflows            0      0.00%      0.00% # Number of insts commited each cycle
system.switch_cpus_1.commit.committed_per_cycle::0    611222298     55.73%     55.73% # Number of insts commited each cycle
system.switch_cpus_1.commit.committed_per_cycle::1    143646798     13.10%     68.83% # Number of insts commited each cycle
system.switch_cpus_1.commit.committed_per_cycle::2     59641659      5.44%     74.27% # Number of insts commited each cycle
system.switch_cpus_1.commit.committed_per_cycle::3     70737782      6.45%     80.72% # Number of insts commited each cycle
system.switch_cpus_1.commit.committed_per_cycle::4     37353868      3.41%     84.12% # Number of insts commited each cycle
system.switch_cpus_1.commit.committed_per_cycle::5     25781200      2.35%     86.47% # Number of insts commited each cycle
system.switch_cpus_1.commit.committed_per_cycle::6     17707192      1.61%     88.09% # Number of insts commited each cycle
system.switch_cpus_1.commit.committed_per_cycle::7     12453231      1.14%     89.22% # Number of insts commited each cycle
system.switch_cpus_1.commit.committed_per_cycle::8    118177294     10.78%    100.00% # Number of insts commited each cycle
system.switch_cpus_1.commit.committed_per_cycle::overflows            0      0.00%    100.00% # Number of insts commited each cycle
system.switch_cpus_1.commit.committed_per_cycle::min_value            0                       # Number of insts commited each cycle
system.switch_cpus_1.commit.committed_per_cycle::max_value            8                       # Number of insts commited each cycle
system.switch_cpus_1.commit.committed_per_cycle::total   1096721322                       # Number of insts commited each cycle
system.switch_cpus_1.commit.fp_insts             5665                       # Number of committed floating point instructions.
system.switch_cpus_1.commit.function_calls      9729214                       # Number of function calls committed.
system.switch_cpus_1.commit.int_insts      1885841317                       # Number of committed integer instructions.
system.switch_cpus_1.commit.loads           241042934                       # Number of loads committed
system.switch_cpus_1.commit.membars                 0                       # Number of memory barriers committed
system.switch_cpus_1.commit.op_class_0::No_OpClass      6152409      0.33%      0.33% # Class of committed instruction
system.switch_cpus_1.commit.op_class_0::IntAlu   1543783870     81.58%     81.91% # Class of committed instruction
system.switch_cpus_1.commit.op_class_0::IntMult       177059      0.01%     81.92% # Class of committed instruction
system.switch_cpus_1.commit.op_class_0::IntDiv      4800256      0.25%     82.17% # Class of committed instruction
system.switch_cpus_1.commit.op_class_0::FloatAdd          245      0.00%     82.17% # Class of committed instruction
system.switch_cpus_1.commit.op_class_0::FloatCmp            0      0.00%     82.17% # Class of committed instruction
system.switch_cpus_1.commit.op_class_0::FloatCvt            0      0.00%     82.17% # Class of committed instruction
system.switch_cpus_1.commit.op_class_0::FloatMult            0      0.00%     82.17% # Class of committed instruction
system.switch_cpus_1.commit.op_class_0::FloatMultAcc            0      0.00%     82.17% # Class of committed instruction
system.switch_cpus_1.commit.op_class_0::FloatDiv            0      0.00%     82.17% # Class of committed instruction
system.switch_cpus_1.commit.op_class_0::FloatMisc            0      0.00%     82.17% # Class of committed instruction
system.switch_cpus_1.commit.op_class_0::FloatSqrt            0      0.00%     82.17% # Class of committed instruction
system.switch_cpus_1.commit.op_class_0::SimdAdd            0      0.00%     82.17% # Class of committed instruction
system.switch_cpus_1.commit.op_class_0::SimdAddAcc            0      0.00%     82.17% # Class of committed instruction
system.switch_cpus_1.commit.op_class_0::SimdAlu          536      0.00%     82.17% # Class of committed instruction
system.switch_cpus_1.commit.op_class_0::SimdCmp            0      0.00%     82.17% # Class of committed instruction
system.switch_cpus_1.commit.op_class_0::SimdCvt          994      0.00%     82.17% # Class of committed instruction
system.switch_cpus_1.commit.op_class_0::SimdMisc         2591      0.00%     82.17% # Class of committed instruction
system.switch_cpus_1.commit.op_class_0::SimdMult            0      0.00%     82.17% # Class of committed instruction
system.switch_cpus_1.commit.op_class_0::SimdMultAcc            0      0.00%     82.17% # Class of committed instruction
system.switch_cpus_1.commit.op_class_0::SimdShift            0      0.00%     82.17% # Class of committed instruction
system.switch_cpus_1.commit.op_class_0::SimdShiftAcc            0      0.00%     82.17% # Class of committed instruction
system.switch_cpus_1.commit.op_class_0::SimdDiv            0      0.00%     82.17% # Class of committed instruction
system.switch_cpus_1.commit.op_class_0::SimdSqrt            0      0.00%     82.17% # Class of committed instruction
system.switch_cpus_1.commit.op_class_0::SimdFloatAdd            0      0.00%     82.17% # Class of committed instruction
system.switch_cpus_1.commit.op_class_0::SimdFloatAlu            0      0.00%     82.17% # Class of committed instruction
system.switch_cpus_1.commit.op_class_0::SimdFloatCmp            0      0.00%     82.17% # Class of committed instruction
system.switch_cpus_1.commit.op_class_0::SimdFloatCvt           10      0.00%     82.17% # Class of committed instruction
system.switch_cpus_1.commit.op_class_0::SimdFloatDiv            1      0.00%     82.17% # Class of committed instruction
system.switch_cpus_1.commit.op_class_0::SimdFloatMisc            0      0.00%     82.17% # Class of committed instruction
system.switch_cpus_1.commit.op_class_0::SimdFloatMult            1      0.00%     82.17% # Class of committed instruction
system.switch_cpus_1.commit.op_class_0::SimdFloatMultAcc            0      0.00%     82.17% # Class of committed instruction
system.switch_cpus_1.commit.op_class_0::SimdFloatSqrt            0      0.00%     82.17% # Class of committed instruction
system.switch_cpus_1.commit.op_class_0::SimdReduceAdd            0      0.00%     82.17% # Class of committed instruction
system.switch_cpus_1.commit.op_class_0::SimdReduceAlu            0      0.00%     82.17% # Class of committed instruction
system.switch_cpus_1.commit.op_class_0::SimdReduceCmp            0      0.00%     82.17% # Class of committed instruction
system.switch_cpus_1.commit.op_class_0::SimdFloatReduceAdd            0      0.00%     82.17% # Class of committed instruction
system.switch_cpus_1.commit.op_class_0::SimdFloatReduceCmp            0      0.00%     82.17% # Class of committed instruction
system.switch_cpus_1.commit.op_class_0::SimdAes            0      0.00%     82.17% # Class of committed instruction
system.switch_cpus_1.commit.op_class_0::SimdAesMix            0      0.00%     82.17% # Class of committed instruction
system.switch_cpus_1.commit.op_class_0::SimdSha1Hash            0      0.00%     82.17% # Class of committed instruction
system.switch_cpus_1.commit.op_class_0::SimdSha1Hash2            0      0.00%     82.17% # Class of committed instruction
system.switch_cpus_1.commit.op_class_0::SimdSha256Hash            0      0.00%     82.17% # Class of committed instruction
system.switch_cpus_1.commit.op_class_0::SimdSha256Hash2            0      0.00%     82.17% # Class of committed instruction
system.switch_cpus_1.commit.op_class_0::SimdShaSigma2            0      0.00%     82.17% # Class of committed instruction
system.switch_cpus_1.commit.op_class_0::SimdShaSigma3            0      0.00%     82.17% # Class of committed instruction
system.switch_cpus_1.commit.op_class_0::SimdPredAlu            0      0.00%     82.17% # Class of committed instruction
system.switch_cpus_1.commit.op_class_0::MemRead    241042382     12.74%     94.91% # Class of committed instruction
system.switch_cpus_1.commit.op_class_0::MemWrite     96338140      5.09%    100.00% # Class of committed instruction
system.switch_cpus_1.commit.op_class_0::FloatMemRead          552      0.00%    100.00% # Class of committed instruction
system.switch_cpus_1.commit.op_class_0::FloatMemWrite            9      0.00%    100.00% # Class of committed instruction
system.switch_cpus_1.commit.op_class_0::IprAccess            0      0.00%    100.00% # Class of committed instruction
system.switch_cpus_1.commit.op_class_0::InstPrefetch            0      0.00%    100.00% # Class of committed instruction
system.switch_cpus_1.commit.op_class_0::total   1892299055                       # Class of committed instruction
system.switch_cpus_1.commit.refs            337381083                       # Number of memory references committed
system.switch_cpus_1.commit.swp_count               0                       # Number of s/w prefetches committed
system.switch_cpus_1.commit.vec_insts               0                       # Number of committed Vector instructions.
system.switch_cpus_1.committedInsts        1000000004                       # Number of Instructions Simulated
system.switch_cpus_1.committedOps          1892299055                       # Number of Ops (including micro ops) Simulated
system.switch_cpus_1.cpi                     1.459564                       # CPI: Cycles Per Instruction
system.switch_cpus_1.cpi_total               1.459564                       # CPI: Total CPI of All Threads
system.switch_cpus_1.decode.BlockedCycles    327234579                       # Number of cycles decode is blocked
system.switch_cpus_1.decode.DecodedInsts   5408092395                       # Number of instructions handled by decode
system.switch_cpus_1.decode.IdleCycles      305905721                       # Number of cycles decode is idle
system.switch_cpus_1.decode.RunCycles       675491954                       # Number of cycles decode is running
system.switch_cpus_1.decode.SquashCycles     82027779                       # Number of cycles decode is squashing
system.switch_cpus_1.decode.UnblockCycles     67492157                       # Number of cycles decode is unblocking
system.switch_cpus_1.dtb.rdAccesses         389552041                       # TLB accesses on read requests
system.switch_cpus_1.dtb.rdMisses             1336621                       # TLB misses on read requests
system.switch_cpus_1.dtb.wrAccesses         134317138                       # TLB accesses on write requests
system.switch_cpus_1.dtb.wrMisses              457143                       # TLB misses on write requests
system.switch_cpus_1.fetch.Branches         721774501                       # Number of branches that fetch encountered
system.switch_cpus_1.fetch.CacheLines       331755875                       # Number of cache lines fetched
system.switch_cpus_1.fetch.Cycles           980988579                       # Number of cycles fetch has run and was not squashing or blocked
system.switch_cpus_1.fetch.IcacheSquashes     19756312                       # Number of outstanding Icache misses that were squashed
system.switch_cpus_1.fetch.IcacheWaitRetryStallCycles          166                       # Number of stall cycles due to full MSHR
system.switch_cpus_1.fetch.Insts           3151455122                       # Number of instructions fetch has processed
system.switch_cpus_1.fetch.MiscStallCycles           21                       # Number of cycles fetch has spent waiting on interrupts, or bad addresses, or out of MSHRs
system.switch_cpus_1.fetch.PendingTrapStallCycles          148                       # Number of stall cycles due to pending traps
system.switch_cpus_1.fetch.SquashCycles     164055558                       # Number of cycles fetch has spent squashing
system.switch_cpus_1.fetch.branchRate        0.494514                       # Number of branch fetches per cycle
system.switch_cpus_1.fetch.icacheStallCycles    395135503                       # Number of cycles fetch is stalled on an Icache miss
system.switch_cpus_1.fetch.predictedBranches    122744719                       # Number of branches that fetch has predicted taken
system.switch_cpus_1.fetch.rate              2.159176                       # Number of inst fetches per cycle
system.switch_cpus_1.fetch.rateDist::samples   1458152196                       # Number of instructions fetched each cycle (Total)
system.switch_cpus_1.fetch.rateDist::mean     4.107240                       # Number of instructions fetched each cycle (Total)
system.switch_cpus_1.fetch.rateDist::stdev     3.670403                       # Number of instructions fetched each cycle (Total)
system.switch_cpus_1.fetch.rateDist::underflows            0      0.00%      0.00% # Number of instructions fetched each cycle (Total)
system.switch_cpus_1.fetch.rateDist::0      567833962     38.94%     38.94% # Number of instructions fetched each cycle (Total)
system.switch_cpus_1.fetch.rateDist::1       29106152      2.00%     40.94% # Number of instructions fetched each cycle (Total)
system.switch_cpus_1.fetch.rateDist::2       47440634      3.25%     44.19% # Number of instructions fetched each cycle (Total)
system.switch_cpus_1.fetch.rateDist::3       34580832      2.37%     46.56% # Number of instructions fetched each cycle (Total)
system.switch_cpus_1.fetch.rateDist::4       38711316      2.65%     49.22% # Number of instructions fetched each cycle (Total)
system.switch_cpus_1.fetch.rateDist::5       57062773      3.91%     53.13% # Number of instructions fetched each cycle (Total)
system.switch_cpus_1.fetch.rateDist::6       60552217      4.15%     57.28% # Number of instructions fetched each cycle (Total)
system.switch_cpus_1.fetch.rateDist::7       25135723      1.72%     59.01% # Number of instructions fetched each cycle (Total)
system.switch_cpus_1.fetch.rateDist::8      597728587     40.99%    100.00% # Number of instructions fetched each cycle (Total)
system.switch_cpus_1.fetch.rateDist::overflows            0      0.00%    100.00% # Number of instructions fetched each cycle (Total)
system.switch_cpus_1.fetch.rateDist::min_value            0                       # Number of instructions fetched each cycle (Total)
system.switch_cpus_1.fetch.rateDist::max_value            8                       # Number of instructions fetched each cycle (Total)
system.switch_cpus_1.fetch.rateDist::total   1458152196                       # Number of instructions fetched each cycle (Total)
system.switch_cpus_1.fp_regfile_reads           13840                       # number of floating regfile reads
system.switch_cpus_1.fp_regfile_writes           6407                       # number of floating regfile writes
system.switch_cpus_1.idleCycles               1411474                       # Total number of cycles that the CPU has spent unscheduled due to idling
system.switch_cpus_1.iew.branchMispredicts    114985232                       # Number of branch mispredicts detected at execute
system.switch_cpus_1.iew.exec_branches      336319058                       # Number of branches executed
system.switch_cpus_1.iew.exec_nop                   0                       # number of nop insts executed
system.switch_cpus_1.iew.exec_rate           2.201709                       # Inst execution rate
system.switch_cpus_1.iew.exec_refs          523873856                       # number of memory reference insts executed
system.switch_cpus_1.iew.exec_stores        134316935                       # Number of stores executed
system.switch_cpus_1.iew.exec_swp                   0                       # number of swp insts executed
system.switch_cpus_1.iew.iewBlockCycles     279603238                       # Number of cycles IEW is blocking
system.switch_cpus_1.iew.iewDispLoadInsts    521548025                       # Number of dispatched load instructions
system.switch_cpus_1.iew.iewDispNonSpecInsts           95                       # Number of dispatched non-speculative instructions
system.switch_cpus_1.iew.iewDispSquashedInsts      1335128                       # Number of squashed instructions skipped by dispatch
system.switch_cpus_1.iew.iewDispStoreInsts    216732852                       # Number of dispatched store instructions
system.switch_cpus_1.iew.iewDispatchedInsts   4159004753                       # Number of instructions dispatched to IQ
system.switch_cpus_1.iew.iewExecLoadInsts    389556921                       # Number of load instructions executed
system.switch_cpus_1.iew.iewExecSquashedInsts    209060444                       # Number of squashed instructions skipped in execute
system.switch_cpus_1.iew.iewExecutedInsts   3213534137                       # Number of executed instructions
system.switch_cpus_1.iew.iewIQFullEvents        26460                       # Number of times the IQ has become full, causing a stall
system.switch_cpus_1.iew.iewIdleCycles              0                       # Number of cycles IEW is idle
system.switch_cpus_1.iew.iewLSQFullEvents       466070                       # Number of times the LSQ has become full, causing a stall
system.switch_cpus_1.iew.iewSquashCycles     82027779                       # Number of cycles IEW is squashing
system.switch_cpus_1.iew.iewUnblockCycles       501171                       # Number of cycles IEW is unblocking
system.switch_cpus_1.iew.lsq.thread0.blockedLoads            0                       # Number of blocked loads due to partial load-store forwarding
system.switch_cpus_1.iew.lsq.thread0.cacheBlocked         2017                       # Number of times an access to memory failed due to the cache being blocked
system.switch_cpus_1.iew.lsq.thread0.forwLoads     15329271                       # Number of loads that had data forwarded from stores
system.switch_cpus_1.iew.lsq.thread0.ignoredResponses       954742                       # Number of memory responses ignored because the instruction is squashed
system.switch_cpus_1.iew.lsq.thread0.invAddrLoads            0                       # Number of loads ignored due to an invalid address
system.switch_cpus_1.iew.lsq.thread0.invAddrSwpfs            0                       # Number of software prefetches ignored due to an invalid address
system.switch_cpus_1.iew.lsq.thread0.memOrderViolation       196301                       # Number of memory ordering violations
system.switch_cpus_1.iew.lsq.thread0.rescheduledLoads        60606                       # Number of loads that were rescheduled
system.switch_cpus_1.iew.lsq.thread0.squashedLoads    280505091                       # Number of loads squashed
system.switch_cpus_1.iew.lsq.thread0.squashedStores    120394703                       # Number of stores squashed
system.switch_cpus_1.iew.memOrderViolationEvents       196301                       # Number of memory order violations
system.switch_cpus_1.iew.predictedNotTakenIncorrect    110116805                       # Number of branches that were predicted not taken incorrectly
system.switch_cpus_1.iew.predictedTakenIncorrect      4868427                       # Number of branches that were predicted taken incorrectly
system.switch_cpus_1.iew.wb_consumers      3343014320                       # num instructions consuming a value
system.switch_cpus_1.iew.wb_count          3139716533                       # cumulative count of insts written-back
system.switch_cpus_1.iew.wb_fanout           0.708209                       # average fanout of values written-back
system.switch_cpus_1.iew.wb_producers      2367553223                       # num instructions producing a value
system.switch_cpus_1.iew.wb_rate             2.151134                       # insts written-back per cycle
system.switch_cpus_1.iew.wb_sent           3168773992                       # cumulative count of insts sent to commit
system.switch_cpus_1.int_regfile_reads     3733176908                       # number of integer regfile reads
system.switch_cpus_1.int_regfile_writes    2662758182                       # number of integer regfile writes
system.switch_cpus_1.ipc                     0.685136                       # IPC: Instructions Per Cycle
system.switch_cpus_1.ipc_total               0.685136                       # IPC: Total IPC of All Threads
system.switch_cpus_1.iq.FU_type_0::No_OpClass     50857454      1.49%      1.49% # Type of FU issued
system.switch_cpus_1.iq.FU_type_0::IntAlu   2782509059     81.30%     82.78% # Type of FU issued
system.switch_cpus_1.iq.FU_type_0::IntMult       638073      0.02%     82.80% # Type of FU issued
system.switch_cpus_1.iq.FU_type_0::IntDiv      5011901      0.15%     82.95% # Type of FU issued
system.switch_cpus_1.iq.FU_type_0::FloatAdd          251      0.00%     82.95% # Type of FU issued
system.switch_cpus_1.iq.FU_type_0::FloatCmp            0      0.00%     82.95% # Type of FU issued
system.switch_cpus_1.iq.FU_type_0::FloatCvt            0      0.00%     82.95% # Type of FU issued
system.switch_cpus_1.iq.FU_type_0::FloatMult            0      0.00%     82.95% # Type of FU issued
system.switch_cpus_1.iq.FU_type_0::FloatMultAcc            0      0.00%     82.95% # Type of FU issued
system.switch_cpus_1.iq.FU_type_0::FloatDiv            0      0.00%     82.95% # Type of FU issued
system.switch_cpus_1.iq.FU_type_0::FloatMisc            0      0.00%     82.95% # Type of FU issued
system.switch_cpus_1.iq.FU_type_0::FloatSqrt            0      0.00%     82.95% # Type of FU issued
system.switch_cpus_1.iq.FU_type_0::SimdAdd            0      0.00%     82.95% # Type of FU issued
system.switch_cpus_1.iq.FU_type_0::SimdAddAcc            0      0.00%     82.95% # Type of FU issued
system.switch_cpus_1.iq.FU_type_0::SimdAlu          609      0.00%     82.95% # Type of FU issued
system.switch_cpus_1.iq.FU_type_0::SimdCmp            0      0.00%     82.95% # Type of FU issued
system.switch_cpus_1.iq.FU_type_0::SimdCvt         1746      0.00%     82.95% # Type of FU issued
system.switch_cpus_1.iq.FU_type_0::SimdMisc         3385      0.00%     82.95% # Type of FU issued
system.switch_cpus_1.iq.FU_type_0::SimdMult            0      0.00%     82.95% # Type of FU issued
system.switch_cpus_1.iq.FU_type_0::SimdMultAcc            0      0.00%     82.95% # Type of FU issued
system.switch_cpus_1.iq.FU_type_0::SimdShift            0      0.00%     82.95% # Type of FU issued
system.switch_cpus_1.iq.FU_type_0::SimdShiftAcc            0      0.00%     82.95% # Type of FU issued
system.switch_cpus_1.iq.FU_type_0::SimdDiv            0      0.00%     82.95% # Type of FU issued
system.switch_cpus_1.iq.FU_type_0::SimdSqrt            0      0.00%     82.95% # Type of FU issued
system.switch_cpus_1.iq.FU_type_0::SimdFloatAdd            0      0.00%     82.95% # Type of FU issued
system.switch_cpus_1.iq.FU_type_0::SimdFloatAlu            0      0.00%     82.95% # Type of FU issued
system.switch_cpus_1.iq.FU_type_0::SimdFloatCmp            0      0.00%     82.95% # Type of FU issued
system.switch_cpus_1.iq.FU_type_0::SimdFloatCvt           25      0.00%     82.95% # Type of FU issued
system.switch_cpus_1.iq.FU_type_0::SimdFloatDiv            1      0.00%     82.95% # Type of FU issued
system.switch_cpus_1.iq.FU_type_0::SimdFloatMisc            0      0.00%     82.95% # Type of FU issued
system.switch_cpus_1.iq.FU_type_0::SimdFloatMult            1      0.00%     82.95% # Type of FU issued
system.switch_cpus_1.iq.FU_type_0::SimdFloatMultAcc            0      0.00%     82.95% # Type of FU issued
system.switch_cpus_1.iq.FU_type_0::SimdFloatSqrt            0      0.00%     82.95% # Type of FU issued
system.switch_cpus_1.iq.FU_type_0::SimdReduceAdd            0      0.00%     82.95% # Type of FU issued
system.switch_cpus_1.iq.FU_type_0::SimdReduceAlu            0      0.00%     82.95% # Type of FU issued
system.switch_cpus_1.iq.FU_type_0::SimdReduceCmp            0      0.00%     82.95% # Type of FU issued
system.switch_cpus_1.iq.FU_type_0::SimdFloatReduceAdd            0      0.00%     82.95% # Type of FU issued
system.switch_cpus_1.iq.FU_type_0::SimdFloatReduceCmp            0      0.00%     82.95% # Type of FU issued
system.switch_cpus_1.iq.FU_type_0::SimdAes            0      0.00%     82.95% # Type of FU issued
system.switch_cpus_1.iq.FU_type_0::SimdAesMix            0      0.00%     82.95% # Type of FU issued
system.switch_cpus_1.iq.FU_type_0::SimdSha1Hash            0      0.00%     82.95% # Type of FU issued
system.switch_cpus_1.iq.FU_type_0::SimdSha1Hash2            0      0.00%     82.95% # Type of FU issued
system.switch_cpus_1.iq.FU_type_0::SimdSha256Hash            0      0.00%     82.95% # Type of FU issued
system.switch_cpus_1.iq.FU_type_0::SimdSha256Hash2            0      0.00%     82.95% # Type of FU issued
system.switch_cpus_1.iq.FU_type_0::SimdShaSigma2            0      0.00%     82.95% # Type of FU issued
system.switch_cpus_1.iq.FU_type_0::SimdShaSigma3            0      0.00%     82.95% # Type of FU issued
system.switch_cpus_1.iq.FU_type_0::SimdPredAlu            0      0.00%     82.95% # Type of FU issued
system.switch_cpus_1.iq.FU_type_0::MemRead    431728867     12.61%     95.56% # Type of FU issued
system.switch_cpus_1.iq.FU_type_0::MemWrite    151841004      4.44%    100.00% # Type of FU issued
system.switch_cpus_1.iq.FU_type_0::FloatMemRead         1534      0.00%    100.00% # Type of FU issued
system.switch_cpus_1.iq.FU_type_0::FloatMemWrite          671      0.00%    100.00% # Type of FU issued
system.switch_cpus_1.iq.FU_type_0::IprAccess            0      0.00%    100.00% # Type of FU issued
system.switch_cpus_1.iq.FU_type_0::InstPrefetch            0      0.00%    100.00% # Type of FU issued
system.switch_cpus_1.iq.FU_type_0::total   3422594581                       # Type of FU issued
system.switch_cpus_1.iq.fp_alu_accesses          9493                       # Number of floating point alu accesses
system.switch_cpus_1.iq.fp_inst_queue_reads        18902                       # Number of floating instruction queue reads
system.switch_cpus_1.iq.fp_inst_queue_wakeup_accesses         8656                       # Number of floating instruction queue wakeup accesses
system.switch_cpus_1.iq.fp_inst_queue_writes        14139                       # Number of floating instruction queue writes
system.switch_cpus_1.iq.fu_busy_cnt         113359572                       # FU busy when requested
system.switch_cpus_1.iq.fu_busy_rate         0.033121                       # FU busy rate (busy events/executed inst)
system.switch_cpus_1.iq.fu_full::No_OpClass            0      0.00%      0.00% # attempts to use FU when none available
system.switch_cpus_1.iq.fu_full::IntAlu     104078479     91.81%     91.81% # attempts to use FU when none available
system.switch_cpus_1.iq.fu_full::IntMult            0      0.00%     91.81% # attempts to use FU when none available
system.switch_cpus_1.iq.fu_full::IntDiv             0      0.00%     91.81% # attempts to use FU when none available
system.switch_cpus_1.iq.fu_full::FloatAdd            0      0.00%     91.81% # attempts to use FU when none available
system.switch_cpus_1.iq.fu_full::FloatCmp            0      0.00%     91.81% # attempts to use FU when none available
system.switch_cpus_1.iq.fu_full::FloatCvt            0      0.00%     91.81% # attempts to use FU when none available
system.switch_cpus_1.iq.fu_full::FloatMult            0      0.00%     91.81% # attempts to use FU when none available
system.switch_cpus_1.iq.fu_full::FloatMultAcc            0      0.00%     91.81% # attempts to use FU when none available
system.switch_cpus_1.iq.fu_full::FloatDiv            0      0.00%     91.81% # attempts to use FU when none available
system.switch_cpus_1.iq.fu_full::FloatMisc            0      0.00%     91.81% # attempts to use FU when none available
system.switch_cpus_1.iq.fu_full::FloatSqrt            0      0.00%     91.81% # attempts to use FU when none available
system.switch_cpus_1.iq.fu_full::SimdAdd            0      0.00%     91.81% # attempts to use FU when none available
system.switch_cpus_1.iq.fu_full::SimdAddAcc            0      0.00%     91.81% # attempts to use FU when none available
system.switch_cpus_1.iq.fu_full::SimdAlu           14      0.00%     91.81% # attempts to use FU when none available
system.switch_cpus_1.iq.fu_full::SimdCmp            0      0.00%     91.81% # attempts to use FU when none available
system.switch_cpus_1.iq.fu_full::SimdCvt            0      0.00%     91.81% # attempts to use FU when none available
system.switch_cpus_1.iq.fu_full::SimdMisc            0      0.00%     91.81% # attempts to use FU when none available
system.switch_cpus_1.iq.fu_full::SimdMult            0      0.00%     91.81% # attempts to use FU when none available
system.switch_cpus_1.iq.fu_full::SimdMultAcc            0      0.00%     91.81% # attempts to use FU when none available
system.switch_cpus_1.iq.fu_full::SimdShift            0      0.00%     91.81% # attempts to use FU when none available
system.switch_cpus_1.iq.fu_full::SimdShiftAcc            0      0.00%     91.81% # attempts to use FU when none available
system.switch_cpus_1.iq.fu_full::SimdDiv            0      0.00%     91.81% # attempts to use FU when none available
system.switch_cpus_1.iq.fu_full::SimdSqrt            0      0.00%     91.81% # attempts to use FU when none available
system.switch_cpus_1.iq.fu_full::SimdFloatAdd            0      0.00%     91.81% # attempts to use FU when none available
system.switch_cpus_1.iq.fu_full::SimdFloatAlu            0      0.00%     91.81% # attempts to use FU when none available
system.switch_cpus_1.iq.fu_full::SimdFloatCmp            0      0.00%     91.81% # attempts to use FU when none available
system.switch_cpus_1.iq.fu_full::SimdFloatCvt            0      0.00%     91.81% # attempts to use FU when none available
system.switch_cpus_1.iq.fu_full::SimdFloatDiv            0      0.00%     91.81% # attempts to use FU when none available
system.switch_cpus_1.iq.fu_full::SimdFloatMisc            0      0.00%     91.81% # attempts to use FU when none available
system.switch_cpus_1.iq.fu_full::SimdFloatMult            0      0.00%     91.81% # attempts to use FU when none available
system.switch_cpus_1.iq.fu_full::SimdFloatMultAcc            0      0.00%     91.81% # attempts to use FU when none available
system.switch_cpus_1.iq.fu_full::SimdFloatSqrt            0      0.00%     91.81% # attempts to use FU when none available
system.switch_cpus_1.iq.fu_full::SimdReduceAdd            0      0.00%     91.81% # attempts to use FU when none available
system.switch_cpus_1.iq.fu_full::SimdReduceAlu            0      0.00%     91.81% # attempts to use FU when none available
system.switch_cpus_1.iq.fu_full::SimdReduceCmp            0      0.00%     91.81% # attempts to use FU when none available
system.switch_cpus_1.iq.fu_full::SimdFloatReduceAdd            0      0.00%     91.81% # attempts to use FU when none available
system.switch_cpus_1.iq.fu_full::SimdFloatReduceCmp            0      0.00%     91.81% # attempts to use FU when none available
system.switch_cpus_1.iq.fu_full::SimdAes            0      0.00%     91.81% # attempts to use FU when none available
system.switch_cpus_1.iq.fu_full::SimdAesMix            0      0.00%     91.81% # attempts to use FU when none available
system.switch_cpus_1.iq.fu_full::SimdSha1Hash            0      0.00%     91.81% # attempts to use FU when none available
system.switch_cpus_1.iq.fu_full::SimdSha1Hash2            0      0.00%     91.81% # attempts to use FU when none available
system.switch_cpus_1.iq.fu_full::SimdSha256Hash            0      0.00%     91.81% # attempts to use FU when none available
system.switch_cpus_1.iq.fu_full::SimdSha256Hash2            0      0.00%     91.81% # attempts to use FU when none available
system.switch_cpus_1.iq.fu_full::SimdShaSigma2            0      0.00%     91.81% # attempts to use FU when none available
system.switch_cpus_1.iq.fu_full::SimdShaSigma3            0      0.00%     91.81% # attempts to use FU when none available
system.switch_cpus_1.iq.fu_full::SimdPredAlu            0      0.00%     91.81% # attempts to use FU when none available
system.switch_cpus_1.iq.fu_full::MemRead      7227419      6.38%     98.19% # attempts to use FU when none available
system.switch_cpus_1.iq.fu_full::MemWrite      2053494      1.81%    100.00% # attempts to use FU when none available
system.switch_cpus_1.iq.fu_full::FloatMemRead            0      0.00%    100.00% # attempts to use FU when none available
system.switch_cpus_1.iq.fu_full::FloatMemWrite          166      0.00%    100.00% # attempts to use FU when none available
system.switch_cpus_1.iq.fu_full::IprAccess            0      0.00%    100.00% # attempts to use FU when none available
system.switch_cpus_1.iq.fu_full::InstPrefetch            0      0.00%    100.00% # attempts to use FU when none available
system.switch_cpus_1.iq.int_alu_accesses   3485087206                       # Number of integer alu accesses
system.switch_cpus_1.iq.int_inst_queue_reads   8473452464                       # Number of integer instruction queue reads
system.switch_cpus_1.iq.int_inst_queue_wakeup_accesses   3139707877                       # Number of integer instruction queue wakeup accesses
system.switch_cpus_1.iq.int_inst_queue_writes   6425866020                       # Number of integer instruction queue writes
system.switch_cpus_1.iq.iqInstsAdded       4159004561                       # Number of instructions added to the IQ (excludes non-spec)
system.switch_cpus_1.iq.iqInstsIssued      3422594581                       # Number of instructions issued
system.switch_cpus_1.iq.iqNonSpecInstsAdded          192                       # Number of non-speculative instructions added to the IQ
system.switch_cpus_1.iq.iqSquashedInstsExamined   2266705698                       # Number of squashed instructions iterated over during squash; mainly for profiling
system.switch_cpus_1.iq.iqSquashedInstsIssued     56770436                       # Number of squashed instructions issued
system.switch_cpus_1.iq.iqSquashedNonSpecRemoved          144                       # Number of squashed non-spec instructions that were removed
system.switch_cpus_1.iq.iqSquashedOperandsExamined   2996183851                       # Number of squashed operands that are examined and possibly removed from graph
system.switch_cpus_1.iq.issued_per_cycle::samples   1458152196                       # Number of insts issued each cycle
system.switch_cpus_1.iq.issued_per_cycle::mean     2.347214                       # Number of insts issued each cycle
system.switch_cpus_1.iq.issued_per_cycle::stdev     2.721173                       # Number of insts issued each cycle
system.switch_cpus_1.iq.issued_per_cycle::underflows            0      0.00%      0.00% # Number of insts issued each cycle
system.switch_cpus_1.iq.issued_per_cycle::0    698573523     47.91%     47.91% # Number of insts issued each cycle
system.switch_cpus_1.iq.issued_per_cycle::1     91464540      6.27%     54.18% # Number of insts issued each cycle
system.switch_cpus_1.iq.issued_per_cycle::2     83140249      5.70%     59.88% # Number of insts issued each cycle
system.switch_cpus_1.iq.issued_per_cycle::3     75074917      5.15%     65.03% # Number of insts issued each cycle
system.switch_cpus_1.iq.issued_per_cycle::4     99024952      6.79%     71.82% # Number of insts issued each cycle
system.switch_cpus_1.iq.issued_per_cycle::5    115997377      7.96%     79.78% # Number of insts issued each cycle
system.switch_cpus_1.iq.issued_per_cycle::6    153423610     10.52%     90.30% # Number of insts issued each cycle
system.switch_cpus_1.iq.issued_per_cycle::7     88627785      6.08%     96.38% # Number of insts issued each cycle
system.switch_cpus_1.iq.issued_per_cycle::8     52825243      3.62%    100.00% # Number of insts issued each cycle
system.switch_cpus_1.iq.issued_per_cycle::overflows            0      0.00%    100.00% # Number of insts issued each cycle
system.switch_cpus_1.iq.issued_per_cycle::min_value            0                       # Number of insts issued each cycle
system.switch_cpus_1.iq.issued_per_cycle::max_value            8                       # Number of insts issued each cycle
system.switch_cpus_1.iq.issued_per_cycle::total   1458152196                       # Number of insts issued each cycle
system.switch_cpus_1.iq.rate                 2.344944                       # Inst issue rate
system.switch_cpus_1.iq.vec_alu_accesses            0                       # Number of vector alu accesses
system.switch_cpus_1.iq.vec_inst_queue_reads            0                       # Number of vector instruction queue reads
system.switch_cpus_1.iq.vec_inst_queue_wakeup_accesses            0                       # Number of vector instruction queue wakeup accesses
system.switch_cpus_1.iq.vec_inst_queue_writes            0                       # Number of vector instruction queue writes
system.switch_cpus_1.itb.rdAccesses                 0                       # TLB accesses on read requests
system.switch_cpus_1.itb.rdMisses                   0                       # TLB misses on read requests
system.switch_cpus_1.itb.wrAccesses         331755904                       # TLB accesses on write requests
system.switch_cpus_1.itb.wrMisses                  75                       # TLB misses on write requests
system.switch_cpus_1.memDep0.conflictingLoads     20449421                       # Number of conflicting loads.
system.switch_cpus_1.memDep0.conflictingStores     15225947                       # Number of conflicting stores.
system.switch_cpus_1.memDep0.insertedLoads    521548025                       # Number of loads inserted to the mem dependence unit.
system.switch_cpus_1.memDep0.insertedStores    216732852                       # Number of stores inserted to the mem dependence unit.
system.switch_cpus_1.misc_regfile_reads    1398266146                       # number of misc regfile reads
system.switch_cpus_1.misc_regfile_writes           72                       # number of misc regfile writes
system.switch_cpus_1.numCycles             1459563670                       # number of cpu cycles simulated
system.switch_cpus_1.numWorkItemsCompleted            0                       # number of work items this cpu completed
system.switch_cpus_1.numWorkItemsStarted            0                       # number of work items this cpu started
system.switch_cpus_1.rename.BlockCycles     327211667                       # Number of cycles rename is blocking
system.switch_cpus_1.rename.CommittedMaps   2277656991                       # Number of HB maps that are committed
system.switch_cpus_1.rename.IQFullEvents      1530126                       # Number of times rename has blocked due to IQ full
system.switch_cpus_1.rename.IdleCycles      358677357                       # Number of cycles rename is idle
system.switch_cpus_1.rename.LQFullEvents      1070375                       # Number of times rename has blocked due to LQ full
system.switch_cpus_1.rename.ROBFullEvents      2591240                       # Number of times rename has blocked due to ROB full
system.switch_cpus_1.rename.RenameLookups  11466066752                       # Number of register rename lookups that rename has made
system.switch_cpus_1.rename.RenamedInsts   4992824761                       # Number of instructions processed by rename
system.switch_cpus_1.rename.RenamedOperands   5796074586                       # Number of destination operands rename has renamed
system.switch_cpus_1.rename.RunCycles       678766087                       # Number of cycles rename is running
system.switch_cpus_1.rename.SQFullEvents       646744                       # Number of times rename has blocked due to SQ full
system.switch_cpus_1.rename.SquashCycles     82027779                       # Number of cycles rename is squashing
system.switch_cpus_1.rename.UnblockCycles     11468199                       # Number of cycles rename is unblocking
system.switch_cpus_1.rename.UndoneMaps     3518417590                       # Number of HB maps that are undone due to squashing
system.switch_cpus_1.rename.fp_rename_lookups        15236                       # Number of floating rename lookups
system.switch_cpus_1.rename.int_rename_lookups   6489413877                       # Number of integer rename lookups
system.switch_cpus_1.rename.serializeStallCycles         1102                       # count of cycles rename stalled for serializing inst
system.switch_cpus_1.rename.serializingInsts           49                       # count of serializing insts renamed
system.switch_cpus_1.rename.skidInsts        57747975                       # count of insts added to the skid buffer
system.switch_cpus_1.rename.tempSerializingInsts           49                       # count of temporary serializing insts renamed
system.switch_cpus_1.rob.rob_reads         5137568416                       # The number of ROB reads
system.switch_cpus_1.rob.rob_writes        8688461166                       # The number of ROB writes
system.switch_cpus_1.timesIdled                200833                       # Number of times that the entire CPU went into an idle state and unscheduled itself
system.tol2bus.snoop_filter.hit_multi_requests            2                       # Number of requests hitting in the snoop filter with multiple (>1) holders of the requested data.
system.tol2bus.snoop_filter.hit_multi_snoops            0                       # Number of snoops hitting in the snoop filter with multiple (>1) holders of the requested data.
system.tol2bus.snoop_filter.hit_single_requests      3276687                       # Number of requests hitting in the snoop filter with a single holder of the requested data.
system.tol2bus.snoop_filter.hit_single_snoops          664                       # Number of snoops hitting in the snoop filter with a single holder of the requested data.
system.tol2bus.snoop_filter.tot_requests      6149796                       # Total number of requests made to the snoop filter.
system.tol2bus.snoop_filter.tot_snoops            664                       # Total number of snoops made to the snoop filter.
system.tol3bus.snoop_filter.hit_multi_requests            0                       # Number of requests hitting in the snoop filter with multiple (>1) holders of the requested data.
system.tol3bus.snoop_filter.hit_multi_snoops            0                       # Number of snoops hitting in the snoop filter with multiple (>1) holders of the requested data.
system.tol3bus.snoop_filter.hit_single_requests      1194445                       # Number of requests hitting in the snoop filter with a single holder of the requested data.
system.tol3bus.snoop_filter.hit_single_snoops         3611                       # Number of snoops hitting in the snoop filter with a single holder of the requested data.
system.tol3bus.snoop_filter.tot_requests      2135261                       # Total number of requests made to the snoop filter.
system.tol3bus.snoop_filter.tot_snoops           3611                       # Total number of snoops made to the snoop filter.
system.membus.trans_dist::ReadResp             340869                       # Transaction distribution
system.membus.trans_dist::WritebackDirty       270980                       # Transaction distribution
system.membus.trans_dist::CleanEvict            87521                       # Transaction distribution
system.membus.trans_dist::UpgradeReq               12                       # Transaction distribution
system.membus.trans_dist::ReadExReq             17638                       # Transaction distribution
system.membus.trans_dist::ReadExResp            17638                       # Transaction distribution
system.membus.trans_dist::ReadSharedReq        340869                       # Transaction distribution
system.membus.pkt_count_system.l3.mem_side::system.mem_ctrls.port      1075527                       # Packet count per connected master and slave (bytes)
system.membus.pkt_count_system.l3.mem_side::total      1075527                       # Packet count per connected master and slave (bytes)
system.membus.pkt_count::total                1075527                       # Packet count per connected master and slave (bytes)
system.membus.pkt_size_system.l3.mem_side::system.mem_ctrls.port     40287168                       # Cumulative packet size per connected master and slave (bytes)
system.membus.pkt_size_system.l3.mem_side::total     40287168                       # Cumulative packet size per connected master and slave (bytes)
system.membus.pkt_size::total                40287168                       # Cumulative packet size per connected master and slave (bytes)
system.membus.snoops                                0                       # Total snoops (count)
system.membus.snoopTraffic                          0                       # Total snoop traffic (bytes)
system.membus.snoop_fanout::samples            358519                       # Request fanout histogram
system.membus.snoop_fanout::mean                    0                       # Request fanout histogram
system.membus.snoop_fanout::stdev                   0                       # Request fanout histogram
system.membus.snoop_fanout::underflows              0      0.00%      0.00% # Request fanout histogram
system.membus.snoop_fanout::0                  358519    100.00%    100.00% # Request fanout histogram
system.membus.snoop_fanout::1                       0      0.00%    100.00% # Request fanout histogram
system.membus.snoop_fanout::overflows               0      0.00%    100.00% # Request fanout histogram
system.membus.snoop_fanout::min_value               0                       # Request fanout histogram
system.membus.snoop_fanout::max_value               0                       # Request fanout histogram
system.membus.snoop_fanout::total              358519                       # Request fanout histogram
system.membus.reqLayer2.occupancy          1880669500                       # Layer occupancy (ticks)
system.membus.reqLayer2.utilization               0.3                       # Layer utilization (%)
system.membus.respLayer1.occupancy         1966951000                       # Layer occupancy (ticks)
system.membus.respLayer1.utilization              0.3                       # Layer utilization (%)
system.membus.power_state.pwrStateResidencyTicks::UNDEFINED 1940716811500                       # Cumulative time (in ticks) in various power states
system.switch_cpus_1.dtb.walker.power_state.pwrStateResidencyTicks::UNDEFINED 1940716811500                       # Cumulative time (in ticks) in various power states
system.switch_cpus_1.itb.walker.power_state.pwrStateResidencyTicks::UNDEFINED 1940716811500                       # Cumulative time (in ticks) in various power states
system.switch_cpus_1.power_state.pwrStateResidencyTicks::OFF 1940716811500                       # Cumulative time (in ticks) in various power states
system.switch_cpus.dtb.walker.power_state.pwrStateResidencyTicks::UNDEFINED 1940716811500                       # Cumulative time (in ticks) in various power states
system.switch_cpus.itb.walker.power_state.pwrStateResidencyTicks::UNDEFINED 1940716811500                       # Cumulative time (in ticks) in various power states
system.switch_cpus.power_state.numTransitions            1                       # Number of power state transitions
system.switch_cpus.power_state.pwrStateResidencyTicks::OFF 1940716811500                       # Cumulative time (in ticks) in various power states
system.tol2bus.trans_dist::ReadResp           2287929                       # Transaction distribution
system.tol2bus.trans_dist::WritebackDirty      1273594                       # Transaction distribution
system.tol2bus.trans_dist::WritebackClean      1017207                       # Transaction distribution
system.tol2bus.trans_dist::CleanEvict          873107                       # Transaction distribution
system.tol2bus.trans_dist::UpgradeReq          403578                       # Transaction distribution
system.tol2bus.trans_dist::UpgradeResp         403578                       # Transaction distribution
system.tol2bus.trans_dist::ReadExReq           585180                       # Transaction distribution
system.tol2bus.trans_dist::ReadExResp          585180                       # Transaction distribution
system.tol2bus.trans_dist::ReadCleanReq       2287929                       # Transaction distribution
system.tol2bus.pkt_count_system.cpu.icache.mem_side::system.l2.cpu_side      3051621                       # Packet count per connected master and slave (bytes)
system.tol2bus.pkt_count_system.cpu.dcache.mem_side::system.l2.cpu_side      6374862                       # Packet count per connected master and slave (bytes)
system.tol2bus.pkt_count::total               9426483                       # Packet count per connected master and slave (bytes)
system.tol2bus.pkt_size_system.cpu.icache.mem_side::system.l2.cpu_side    130202496                       # Cumulative packet size per connected master and slave (bytes)
system.tol2bus.pkt_size_system.cpu.dcache.mem_side::system.l2.cpu_side    182060800                       # Cumulative packet size per connected master and slave (bytes)
system.tol2bus.pkt_size::total              312263296                       # Cumulative packet size per connected master and slave (bytes)
system.tol2bus.snoops                          290799                       # Total snoops (count)
system.tol2bus.snoopTraffic                  18226944                       # Total snoop traffic (bytes)
system.tol2bus.snoop_fanout::samples          3567486                       # Request fanout histogram
system.tol2bus.snoop_fanout::mean            0.000187                       # Request fanout histogram
system.tol2bus.snoop_fanout::stdev           0.013662                       # Request fanout histogram
system.tol2bus.snoop_fanout::underflows             0      0.00%      0.00% # Request fanout histogram
system.tol2bus.snoop_fanout::0                3566820     99.98%     99.98% # Request fanout histogram
system.tol2bus.snoop_fanout::1                    666      0.02%    100.00% # Request fanout histogram
system.tol2bus.snoop_fanout::2                      0      0.00%    100.00% # Request fanout histogram
system.tol2bus.snoop_fanout::3                      0      0.00%    100.00% # Request fanout histogram
system.tol2bus.snoop_fanout::4                      0      0.00%    100.00% # Request fanout histogram
system.tol2bus.snoop_fanout::overflows              0      0.00%    100.00% # Request fanout histogram
system.tol2bus.snoop_fanout::min_value              0                       # Request fanout histogram
system.tol2bus.snoop_fanout::max_value              1                       # Request fanout histogram
system.tol2bus.snoop_fanout::total            3567486                       # Request fanout histogram
system.tol2bus.reqLayer0.occupancy         5080903000                       # Layer occupancy (ticks)
system.tol2bus.reqLayer0.utilization              0.7                       # Layer utilization (%)
system.tol2bus.respLayer1.occupancy        2986325131                       # Layer occupancy (ticks)
system.tol2bus.respLayer1.utilization             0.4                       # Layer utilization (%)
system.tol2bus.respLayer0.occupancy        1526018583                       # Layer occupancy (ticks)
system.tol2bus.respLayer0.utilization             0.2                       # Layer utilization (%)
system.tol2bus.power_state.pwrStateResidencyTicks::UNDEFINED 1940716811500                       # Cumulative time (in ticks) in various power states
system.voltage_domain.voltage                       1                       # Voltage in Volts
system.clk_domain.clock                          1000                       # Clock period in ticks
system.l2.demand_hits::.switch_cpus_1.inst      1014787                       # number of demand (read+write) hits
system.l2.demand_hits::.switch_cpus_1.data       917504                       # number of demand (read+write) hits
system.l2.demand_hits::total                  1932291                       # number of demand (read+write) hits
system.l2.overall_hits::.switch_cpus_1.inst      1014787                       # number of overall hits
system.l2.overall_hits::.switch_cpus_1.data       917504                       # number of overall hits
system.l2.overall_hits::total                 1932291                       # number of overall hits
system.l2.demand_misses::.switch_cpus_1.inst         2420                       # number of demand (read+write) misses
system.l2.demand_misses::.switch_cpus_1.data       938398                       # number of demand (read+write) misses
system.l2.demand_misses::total                 940818                       # number of demand (read+write) misses
system.l2.overall_misses::.switch_cpus_1.inst         2420                       # number of overall misses
system.l2.overall_misses::.switch_cpus_1.data       938398                       # number of overall misses
system.l2.overall_misses::total                940818                       # number of overall misses
system.l2.demand_miss_latency::.switch_cpus_1.inst    153668000                       # number of demand (read+write) miss cycles
system.l2.demand_miss_latency::.switch_cpus_1.data  54823525000                       # number of demand (read+write) miss cycles
system.l2.demand_miss_latency::total      54977193000                       # number of demand (read+write) miss cycles
system.l2.overall_miss_latency::.switch_cpus_1.inst    153668000                       # number of overall miss cycles
system.l2.overall_miss_latency::.switch_cpus_1.data  54823525000                       # number of overall miss cycles
system.l2.overall_miss_latency::total     54977193000                       # number of overall miss cycles
system.l2.demand_accesses::.switch_cpus_1.inst      1017207                       # number of demand (read+write) accesses
system.l2.demand_accesses::.switch_cpus_1.data      1855902                       # number of demand (read+write) accesses
system.l2.demand_accesses::total              2873109                       # number of demand (read+write) accesses
system.l2.overall_accesses::.switch_cpus_1.inst      1017207                       # number of overall (read+write) accesses
system.l2.overall_accesses::.switch_cpus_1.data      1855902                       # number of overall (read+write) accesses
system.l2.overall_accesses::total             2873109                       # number of overall (read+write) accesses
system.l2.demand_miss_rate::.switch_cpus_1.inst     0.002379                       # miss rate for demand accesses
[...]
system.cpu.dcache.demand_miss_latency::total  95389725987                       # number of demand (read+write) miss cycles
system.cpu.dcache.overall_miss_latency::.switch_cpus.data   3401173000                       # number of overall miss cycles
system.cpu.dcache.overall_miss_latency::.switch_cpus_1.data  91988552987                       # number of overall miss cycles
system.cpu.dcache.overall_miss_latency::total  95389725987                       # number of overall miss cycles
system.cpu.dcache.demand_accesses::.cpu.data    383069519                       # number of demand (read+write) accesses
system.cpu.dcache.demand_accesses::.switch_cpus.data     16518877                       # number of demand (read+write) accesses
system.cpu.dcache.demand_accesses::.switch_cpus_1.data    469870898                       # number of demand (read+write) accesses
system.cpu.dcache.demand_accesses::total    869459294                       # number of demand (read+write) accesses
system.cpu.dcache.overall_accesses::.cpu.data    383069519                       # number of overall (read+write) accesses
system.cpu.dcache.overall_accesses::.switch_cpus.data     16518877                       # number of overall (read+write) accesses
system.cpu.dcache.overall_accesses::.switch_cpus_1.data    469870898                       # number of overall (read+write) accesses
system.cpu.dcache.overall_accesses::total    869459294                       # number of overall (read+write) accesses
system.cpu.dcache.demand_miss_rate::.cpu.data     0.026183                       # miss rate for demand accesses
system.cpu.dcache.demand_miss_rate::.switch_cpus.data     0.005795                       # miss rate for demand accesses
system.cpu.dcache.demand_miss_rate::.switch_cpus_1.data     0.006123                       # miss rate for demand accesses
system.cpu.dcache.demand_miss_rate::total     0.014955                       # miss rate for demand accesses
system.cpu.dcache.overall_miss_rate::.cpu.data     0.026183                       # miss rate for overall accesses
system.cpu.dcache.overall_miss_rate::.switch_cpus.data     0.005795                       # miss rate for overall accesses
system.cpu.dcache.overall_miss_rate::.switch_cpus_1.data     0.006123                       # miss rate for overall accesses
system.cpu.dcache.overall_miss_rate::total     0.014955                       # miss rate for overall accesses
system.cpu.dcache.demand_avg_miss_latency::.switch_cpus.data 35530.294800                       # average overall miss latency
system.cpu.dcache.demand_avg_miss_latency::.switch_cpus_1.data 31971.208772                       # average overall miss latency
system.cpu.dcache.demand_avg_miss_latency::total  7335.950103                       # average overall miss latency
system.cpu.dcache.overall_avg_miss_latency::.switch_cpus.data 35530.294800                       # average overall miss latency
system.cpu.dcache.overall_avg_miss_latency::.switch_cpus_1.data 31971.208772                       # average overall miss latency
system.cpu.dcache.overall_avg_miss_latency::total  7335.950103                       # average overall miss latency
system.cpu.dcache.blocked_cycles::no_mshrs        41567                       # number of cycles access was blocked
system.cpu.dcache.blocked_cycles::no_targets          818                       # number of cycles access was blocked
system.cpu.dcache.blocked::no_mshrs              3382                       # number of cycles access was blocked
system.cpu.dcache.blocked::no_targets               4                       # number of cycles access was blocked
system.cpu.dcache.avg_blocked_cycles::no_mshrs    12.290656                       # average number of cycles each access was blocked
system.cpu.dcache.avg_blocked_cycles::no_targets   204.500000                       # average number of cycles each access was blocked
system.cpu.dcache.writebacks::.writebacks     10159993                       # number of writebacks
system.cpu.dcache.writebacks::total          10159993                       # number of writebacks
system.cpu.dcache.demand_mshr_hits::.switch_cpus_1.data       625751                       # number of demand (read+write) MSHR hits
system.cpu.dcache.demand_mshr_hits::total       625751                       # number of demand (read+write) MSHR hits
system.cpu.dcache.overall_mshr_hits::.switch_cpus_1.data       625751                       # number of overall MSHR hits
system.cpu.dcache.overall_mshr_hits::total       625751                       # number of overall MSHR hits
system.cpu.dcache.demand_mshr_misses::.switch_cpus.data        95726                       # number of demand (read+write) MSHR misses
system.cpu.dcache.demand_mshr_misses::.switch_cpus_1.data      2251480                       # number of demand (read+write) MSHR misses
system.cpu.dcache.demand_mshr_misses::total      2347206                       # number of demand (read+write) MSHR misses
system.cpu.dcache.overall_mshr_misses::.switch_cpus.data        95726                       # number of overall MSHR misses
system.cpu.dcache.overall_mshr_misses::.switch_cpus_1.data      2251480                       # number of overall MSHR misses
system.cpu.dcache.overall_mshr_misses::total      2347206                       # number of overall MSHR misses
system.cpu.dcache.demand_mshr_miss_latency::.switch_cpus.data   3305447000                       # number of demand (read+write) MSHR miss cycles
system.cpu.dcache.demand_mshr_miss_latency::.switch_cpus_1.data  75513138487                       # number of demand (read+write) MSHR miss cycles
system.cpu.dcache.demand_mshr_miss_latency::total  78818585487                       # number of demand (read+write) MSHR miss cycles
system.cpu.dcache.overall_mshr_miss_latency::.switch_cpus.data   3305447000                       # number of overall MSHR miss cycles
system.cpu.dcache.overall_mshr_miss_latency::.switch_cpus_1.data  75513138487                       # number of overall MSHR miss cycles
system.cpu.dcache.overall_mshr_miss_latency::total  78818585487                       # number of overall MSHR miss cycles
system.cpu.dcache.demand_mshr_miss_rate::.switch_cpus.data     0.005795                       # mshr miss rate for demand accesses
system.cpu.dcache.demand_mshr_miss_rate::.switch_cpus_1.data     0.004792                       # mshr miss rate for demand accesses
system.cpu.dcache.demand_mshr_miss_rate::total     0.002700                       # mshr miss rate for demand accesses
system.cpu.dcache.overall_mshr_miss_rate::.switch_cpus.data     0.005795                       # mshr miss rate for overall accesses
system.cpu.dcache.overall_mshr_miss_rate::.switch_cpus_1.data     0.004792                       # mshr miss rate for overall accesses
system.cpu.dcache.overall_mshr_miss_rate::total     0.002700                       # mshr miss rate for overall accesses
system.cpu.dcache.demand_avg_mshr_miss_latency::.switch_cpus.data 34530.294800                       # average overall mshr miss latency
system.cpu.dcache.demand_avg_mshr_miss_latency::.switch_cpus_1.data 33539.333455                       # average overall mshr miss latency
system.cpu.dcache.demand_avg_mshr_miss_latency::total 33579.747788                       # average overall mshr miss latency
system.cpu.dcache.overall_avg_mshr_miss_latency::.switch_cpus.data 34530.294800                       # average overall mshr miss latency
system.cpu.dcache.overall_avg_mshr_miss_latency::.switch_cpus_1.data 33539.333455                       # average overall mshr miss latency
system.cpu.dcache.overall_avg_mshr_miss_latency::total 33579.747788                       # average overall mshr miss latency
system.cpu.dcache.replacements               11651045                       # number of replacements
system.cpu.dcache.ReadReq_hits::.cpu.data    226395386                       # number of ReadReq hits
system.cpu.dcache.ReadReq_hits::.switch_cpus.data     11964001                       # number of ReadReq hits
system.cpu.dcache.ReadReq_hits::.switch_cpus_1.data    371644276                       # number of ReadReq hits
system.cpu.dcache.ReadReq_hits::total       610003663                       # number of ReadReq hits
system.cpu.dcache.ReadReq_misses::.cpu.data       905512                       # number of ReadReq misses
system.cpu.dcache.ReadReq_misses::.switch_cpus.data        48838                       # number of ReadReq misses
system.cpu.dcache.ReadReq_misses::.switch_cpus_1.data      1888473                       # number of ReadReq misses
system.cpu.dcache.ReadReq_misses::total       2842823                       # number of ReadReq misses
system.cpu.dcache.ReadReq_miss_latency::.switch_cpus.data   2502679500                       # number of ReadReq miss cycles
system.cpu.dcache.ReadReq_miss_latency::.switch_cpus_1.data  73933647000                       # number of ReadReq miss cycles
system.cpu.dcache.ReadReq_miss_latency::total  76436326500                       # number of ReadReq miss cycles
system.cpu.dcache.ReadReq_accesses::.cpu.data    227300898                       # number of ReadReq accesses(hits+misses)
system.cpu.dcache.ReadReq_accesses::.switch_cpus.data     12012839                       # number of ReadReq accesses(hits+misses)
system.cpu.dcache.ReadReq_accesses::.switch_cpus_1.data    373532749                       # number of ReadReq accesses(hits+misses)
system.cpu.dcache.ReadReq_accesses::total    612846486                       # number of ReadReq accesses(hits+misses)
system.cpu.dcache.ReadReq_miss_rate::.cpu.data     0.003984                       # miss rate for ReadReq accesses
system.cpu.dcache.ReadReq_miss_rate::.switch_cpus.data     0.004065                       # miss rate for ReadReq accesses
system.cpu.dcache.ReadReq_miss_rate::.switch_cpus_1.data     0.005056                       # miss rate for ReadReq accesses
system.cpu.dcache.ReadReq_miss_rate::total     0.004639                       # miss rate for ReadReq accesses
system.cpu.dcache.ReadReq_avg_miss_latency::.switch_cpus.data 51244.512470                       # average ReadReq miss latency
system.cpu.dcache.ReadReq_avg_miss_latency::.switch_cpus_1.data 39149.962430                       # average ReadReq miss latency
system.cpu.dcache.ReadReq_avg_miss_latency::total 26887.472945                       # average ReadReq miss latency
system.cpu.dcache.ReadReq_mshr_hits::.switch_cpus_1.data       617025                       # number of ReadReq MSHR hits
system.cpu.dcache.ReadReq_mshr_hits::total       617025                       # number of ReadReq MSHR hits
system.cpu.dcache.ReadReq_mshr_misses::.switch_cpus.data        48838                       # number of ReadReq MSHR misses
system.cpu.dcache.ReadReq_mshr_misses::.switch_cpus_1.data      1271448                       # number of ReadReq MSHR misses
system.cpu.dcache.ReadReq_mshr_misses::total      1320286                       # number of ReadReq MSHR misses
system.cpu.dcache.ReadReq_mshr_miss_latency::.switch_cpus.data   2453841500                       # number of ReadReq MSHR miss cycles
system.cpu.dcache.ReadReq_mshr_miss_latency::.switch_cpus_1.data  58456586500                       # number of ReadReq MSHR miss cycles
system.cpu.dcache.ReadReq_mshr_miss_latency::total  60910428000                       # number of ReadReq MSHR miss cycles
system.cpu.dcache.ReadReq_mshr_miss_rate::.switch_cpus.data     0.004065                       # mshr miss rate for ReadReq accesses
system.cpu.dcache.ReadReq_mshr_miss_rate::.switch_cpus_1.data     0.003404                       # mshr miss rate for ReadReq accesses
system.cpu.dcache.ReadReq_mshr_miss_rate::total     0.002154                       # mshr miss rate for ReadReq accesses
system.cpu.dcache.ReadReq_avg_mshr_miss_latency::.switch_cpus.data 50244.512470                       # average ReadReq mshr miss latency
system.cpu.dcache.ReadReq_avg_mshr_miss_latency::.switch_cpus_1.data 45976.387945                       # average ReadReq mshr miss latency
system.cpu.dcache.ReadReq_avg_mshr_miss_latency::total 46134.267878                       # average ReadReq mshr miss latency
system.cpu.dcache.WriteReq_hits::.cpu.data    146644040                       # number of WriteReq hits
system.cpu.dcache.WriteReq_hits::.switch_cpus.data      4459150                       # number of WriteReq hits
system.cpu.dcache.WriteReq_hits::.switch_cpus_1.data     95349391                       # number of WriteReq hits
system.cpu.dcache.WriteReq_hits::total      246452581                       # number of WriteReq hits
system.cpu.dcache.WriteReq_misses::.cpu.data      9124581                       # number of WriteReq misses
system.cpu.dcache.WriteReq_misses::.switch_cpus.data        46888                       # number of WriteReq misses
system.cpu.dcache.WriteReq_misses::.switch_cpus_1.data       988758                       # number of WriteReq misses
system.cpu.dcache.WriteReq_misses::total     10160227                       # number of WriteReq misses
system.cpu.dcache.WriteReq_miss_latency::.switch_cpus.data    898493500                       # number of WriteReq miss cycles
system.cpu.dcache.WriteReq_miss_latency::.switch_cpus_1.data  18054905987                       # number of WriteReq miss cycles
system.cpu.dcache.WriteReq_miss_latency::total  18953399487                       # number of WriteReq miss cycles
system.cpu.dcache.WriteReq_accesses::.cpu.data    155768621                       # number of WriteReq accesses(hits+misses)
system.cpu.dcache.WriteReq_accesses::.switch_cpus.data      4506038                       # number of WriteReq accesses(hits+misses)
system.cpu.dcache.WriteReq_accesses::.switch_cpus_1.data     96338149                       # number of WriteReq accesses(hits+misses)
system.cpu.dcache.WriteReq_accesses::total    256612808                       # number of WriteReq accesses(hits+misses)
system.cpu.dcache.WriteReq_miss_rate::.cpu.data     0.058578                       # miss rate for WriteReq accesses
system.cpu.dcache.WriteReq_miss_rate::.switch_cpus.data     0.010406                       # miss rate for WriteReq accesses
system.cpu.dcache.WriteReq_miss_rate::.switch_cpus_1.data     0.010263                       # miss rate for WriteReq accesses
system.cpu.dcache.WriteReq_miss_rate::total     0.039594                       # miss rate for WriteReq accesses
system.cpu.dcache.WriteReq_avg_miss_latency::.switch_cpus.data 19162.546920                       # average WriteReq miss latency
system.cpu.dcache.WriteReq_avg_miss_latency::.switch_cpus_1.data 18260.187009                       # average WriteReq miss latency
system.cpu.dcache.WriteReq_avg_miss_latency::total  1865.450397                       # average WriteReq miss latency
system.cpu.dcache.WriteReq_mshr_hits::.switch_cpus_1.data         8726                       # number of WriteReq MSHR hits
system.cpu.dcache.WriteReq_mshr_hits::total         8726                       # number of WriteReq MSHR hits
system.cpu.dcache.WriteReq_mshr_misses::.switch_cpus.data        46888                       # number of WriteReq MSHR misses
system.cpu.dcache.WriteReq_mshr_misses::.switch_cpus_1.data       980032                       # number of WriteReq MSHR misses
system.cpu.dcache.WriteReq_mshr_misses::total      1026920                       # number of WriteReq MSHR misses
system.cpu.dcache.WriteReq_mshr_miss_latency::.switch_cpus.data    851605500                       # number of WriteReq MSHR miss cycles
system.cpu.dcache.WriteReq_mshr_miss_latency::.switch_cpus_1.data  17056551987                       # number of WriteReq MSHR miss cycles
system.cpu.dcache.WriteReq_mshr_miss_latency::total  17908157487                       # number of WriteReq MSHR miss cycles
system.cpu.dcache.WriteReq_mshr_miss_rate::.switch_cpus.data     0.010406                       # mshr miss rate for WriteReq accesses
system.cpu.dcache.WriteReq_mshr_miss_rate::.switch_cpus_1.data     0.010173                       # mshr miss rate for WriteReq accesses
system.cpu.dcache.WriteReq_mshr_miss_rate::total     0.004002                       # mshr miss rate for WriteReq accesses
system.cpu.dcache.WriteReq_avg_mshr_miss_latency::.switch_cpus.data 18162.546920                       # average WriteReq mshr miss latency
system.cpu.dcache.WriteReq_avg_mshr_miss_latency::.switch_cpus_1.data 17404.076588                       # average WriteReq mshr miss latency
system.cpu.dcache.WriteReq_avg_mshr_miss_latency::total 17438.707482                       # average WriteReq mshr miss latency
system.cpu.dcache.power_state.pwrStateResidencyTicks::UNDEFINED 1940716811500                       # Cumulative time (in ticks) in various power states
system.cpu.dcache.tags.tagsinuse           511.996953                       # Cycle average of tags in use
system.cpu.dcache.tags.total_refs           868843084                       # Total number of references to valid blocks.
system.cpu.dcache.tags.sampled_refs          11651557                       # Sample count of references to valid blocks.
system.cpu.dcache.tags.avg_refs             74.568840                       # Average number of references to valid blocks.
system.cpu.dcache.tags.warmup_cycle              1500                       # Cycle when the warmup percentage was hit.
system.cpu.dcache.tags.occ_blocks::.cpu.data   300.422992                       # Average occupied blocks per requestor
system.cpu.dcache.tags.occ_blocks::.switch_cpus.data    22.136212                       # Average occupied blocks per requestor
system.cpu.dcache.tags.occ_blocks::.switch_cpus_1.data   189.437750                       # Average occupied blocks per requestor
system.cpu.dcache.tags.occ_percent::.cpu.data     0.586764                       # Average percentage of cache occupancy
system.cpu.dcache.tags.occ_percent::.switch_cpus.data     0.043235                       # Average percentage of cache occupancy
system.cpu.dcache.tags.occ_percent::.switch_cpus_1.data     0.369996                       # Average percentage of cache occupancy
system.cpu.dcache.tags.occ_percent::total     0.999994                       # Average percentage of cache occupancy
system.cpu.dcache.tags.occ_task_id_blocks::1024          512                       # Occupied blocks per task id
system.cpu.dcache.tags.age_task_id_blocks_1024::0           14                       # Occupied blocks per task id
system.cpu.dcache.tags.age_task_id_blocks_1024::1          101                       # Occupied blocks per task id
system.cpu.dcache.tags.age_task_id_blocks_1024::2          256                       # Occupied blocks per task id
system.cpu.dcache.tags.age_task_id_blocks_1024::3          108                       # Occupied blocks per task id
system.cpu.dcache.tags.age_task_id_blocks_1024::4           33                       # Occupied blocks per task id
system.cpu.dcache.tags.occ_task_id_percent::1024            1                       # Percentage of cache occupancy per task id
system.cpu.dcache.tags.tag_accesses        3489488733                       # Number of tag accesses
system.cpu.dcache.tags.data_accesses       3489488733                       # Number of data accesses
system.cpu.dcache.tags.power_state.pwrStateResidencyTicks::UNDEFINED 1940716811500                       # Cumulative time (in ticks) in various power states
system.cpu.power_state.numTransitions               2                       # Number of power state transitions
system.cpu.power_state.pwrStateResidencyTicks::ON 1123541832500                       # Cumulative time (in ticks) in various power states
system.cpu.power_state.pwrStateResidencyTicks::OFF 817174979000                       # Cumulative time (in ticks) in various power states

---------- End Simulation Statistics   ----------
