
---------- Begin Simulation Statistics ----------
final_tick                               1653560408500                       # Number of ticks from beginning of simulation (restored from checkpoints and never reset)
host_inst_rate                                 154566                       # Simulator instruction rate (inst/s)
host_mem_usage                                4596816                       # Number of bytes of host memory used
host_op_rate                                   299022                       # Simulator op (including micro ops) rate (op/s)
host_seconds                                 13262.90                       # Real time elapsed on the host
host_tick_rate                               29715481                       # Simulator tick rate (ticks/s)
sim_freq                                 1000000000000                       # Frequency of simulated ticks
sim_insts                                  2050000004                       # Number of instructions simulated
sim_ops                                    3965900558                       # Number of ops (including micro ops) simulated
sim_seconds                                  0.394114                       # Number of seconds simulated
sim_ticks                                394113504000                       # Number of ticks simulated
system.cpu.committedInsts                           0                       # Number of instructions committed
system.cpu.committedOps                             0                       # Number of ops (including micro ops) committed
system.cpu.dtb.rdAccesses                           0                       # TLB accesses on read requests
system.cpu.dtb.rdMisses                             0                       # TLB misses on read requests
system.cpu.dtb.wrAccesses                           0                       # TLB accesses on write requests
system.cpu.dtb.wrMisses                             0                       # TLB misses on write requests
system.cpu.idle_fraction                            0                       # Percentage of idle cycles
system.cpu.itb.rdAccesses                           0                       # TLB accesses on read requests
system.cpu.itb.rdMisses                             0                       # TLB misses on read requests
system.cpu.itb.wrAccesses                           0                       # TLB accesses on write requests
system.cpu.itb.wrMisses                             0                       # TLB misses on write requests
system.cpu.not_idle_fraction                        1                       # Percentage of non-idle cycles
system.cpu.numCycles                                0                       # number of cpu cycles simulated
system.cpu.numWorkItemsCompleted                    0                       # number of work items this cpu completed
system.cpu.numWorkItemsStarted                      0                       # number of work items this cpu started
system.cpu.num_busy_cycles                          0                       # Number of busy cycles
system.cpu.num_conditional_control_insts            0                       # number of instructions that are conditional controls
system.cpu.num_fp_alu_accesses                      0                       # Number of float alu accesses
system.cpu.num_fp_insts                             0                       # number of float instructions
system.cpu.num_fp_register_reads                    0                       # number of times the floating registers were read
system.cpu.num_fp_register_writes                   0                       # number of times the floating registers were written
system.cpu.num_func_calls                           0                       # number of times a function call or return occured
system.cpu.num_idle_cycles                          0                       # Number of idle cycles
system.cpu.num_int_alu_accesses                     0                       # Number of integer alu accesses
system.cpu.num_int_insts                            0                       # number of integer instructions
system.cpu.num_int_register_reads                   0                       # number of times the integer registers were read
system.cpu.num_int_register_writes                  0                       # number of times the integer registers were written
system.cpu.num_load_insts                           0                       # Number of load instructions
system.cpu.num_mem_refs                             0                       # number of memory refs
system.cpu.num_store_insts                          0                       # Number of store instructions
system.cpu.num_vec_alu_accesses                     0                       # Number of vector alu accesses
system.cpu.num_vec_insts                            0                       # number of vector instructions
system.cpu.num_vec_register_reads                   0                       # number of times the vector registers were read
system.cpu.num_vec_register_writes                  0                       # number of times the vector registers were written
system.cpu.op_class::No_OpClass                     0                       # Class of executed instruction
system.cpu.op_class::IntAlu                         0                       # Class of executed instruction
system.cpu.op_class::IntMult                        0                       # Class of executed instruction
system.cpu.op_class::IntDiv                         0                       # Class of executed instruction
system.cpu.op_class::FloatAdd                       0                       # Class of executed instruction
system.cpu.op_class::FloatCmp                       0                       # Class of executed instruction
system.cpu.op_class::FloatCvt                       0                       # Class of executed instruction
system.cpu.op_class::FloatMult                      0                       # Class of executed instruction
system.cpu.op_class::FloatMultAcc                   0                       # Class of executed instruction
system.cpu.op_class::FloatDiv                       0                       # Class of executed instruction
system.cpu.op_class::FloatMisc                      0                       # Class of executed instruction
system.cpu.op_class::FloatSqrt                      0                       # Class of executed instruction
system.cpu.op_class::SimdAdd                        0                       # Class of executed instruction
system.cpu.op_class::SimdAddAcc                     0                       # Class of executed instruction
system.cpu.op_class::SimdAlu                        0                       # Class of executed instruction
system.cpu.op_class::SimdCmp                        0                       # Class of executed instruction
system.cpu.op_class::SimdCvt                        0                       # Class of executed instruction
system.cpu.op_class::SimdMisc                       0                       # Class of executed instruction
system.cpu.op_class::SimdMult                       0                       # Class of executed instruction
system.cpu.op_class::SimdMultAcc                    0                       # Class of executed instruction
system.cpu.op_class::SimdShift                      0                       # Class of executed instruction
system.cpu.op_class::SimdShiftAcc                   0                       # Class of executed instruction
system.cpu.op_class::SimdDiv                        0                       # Class of executed instruction
system.cpu.op_class::SimdSqrt                       0                       # Class of executed instruction
system.cpu.op_class::SimdFloatAdd                   0                       # Class of executed instruction
system.cpu.op_class::SimdFloatAlu                   0                       # Class of executed instruction
system.cpu.op_class::SimdFloatCmp                   0                       # Class of executed instruction
system.cpu.op_class::SimdFloatCvt                   0                       # Class of executed instruction
system.cpu.op_class::SimdFloatDiv                   0                       # Class of executed instruction
system.cpu.op_class::SimdFloatMisc                  0                       # Class of executed instruction
system.cpu.op_class::SimdFloatMult                  0                       # Class of executed instruction
system.cpu.op_class::SimdFloatMultAcc               0                       # Class of executed instruction
system.cpu.op_class::SimdFloatSqrt                  0                       # Class of executed instruction
system.cpu.op_class::SimdReduceAdd                  0                       # Class of executed instruction
system.cpu.op_class::SimdReduceAlu                  0                       # Class of executed instruction
system.cpu.op_class::SimdReduceCmp                  0                       # Class of executed instruction
system.cpu.op_class::SimdFloatReduceAdd             0                       # Class of executed instruction
system.cpu.op_class::SimdFloatReduceCmp             0                       # Class of executed instruction
system.cpu.op_class::SimdAes                        0                       # Class of executed instruction
system.cpu.op_class::SimdAesMix                     0                       # Class of executed instruction
system.cpu.op_class::SimdSha1Hash                   0                       # Class of executed instruction
system.cpu.op_class::SimdSha1Hash2                  0                       # Class of executed instruction
system.cpu.op_class::SimdSha256Hash                 0                       # Class of executed instruction
system.cpu.op_class::SimdSha256Hash2                0                       # Class of executed instruction
system.cpu.op_class::SimdShaSigma2                  0                       # Class of executed instruction
system.cpu.op_class::SimdShaSigma3                  0                       # Class of executed instruction
system.cpu.op_class::SimdPredAlu                    0                       # Class of executed instruction
system.cpu.op_class::MemRead                        0                       # Class of executed instruction
system.cpu.op_class::MemWrite                       0                       # Class of executed instruction
system.cpu.op_class::FloatMemRead                   0                       # Class of executed instruction
system.cpu.op_class::FloatMemWrite                  0                       # Class of executed instruction
system.cpu.op_class::IprAccess                      0                       # Class of executed instruction
system.cpu.op_class::InstPrefetch                   0                       # Class of executed instruction
system.cpu.op_class::total                          0                       # Class of executed instruction
system.cpu.workload.numSyscalls                   505                       # Number of system calls
system.membus.snoop_filter.hit_multi_requests            0                       # Number of requests hitting in the snoop filter with multiple (>1) holders of the requested data.
system.membus.snoop_filter.hit_multi_snoops            0                       # Number of snoops hitting in the snoop filter with multiple (>1) holders of the requested data.
system.membus.snoop_filter.hit_single_requests      1047971                       # Number of requests hitting in the snoop filter with a single holder of the requested data.
system.membus.snoop_filter.hit_single_snoops            0                       # Number of snoops hitting in the snoop filter with a single holder of the requested data.
system.membus.snoop_filter.tot_requests       2094268                       # Total number of requests made to the snoop filter.
system.membus.snoop_filter.tot_snoops               0                       # Total number of snoops made to the snoop filter.
system.switch_cpus.committedInsts                   0                       # Number of instructions committed
system.switch_cpus.committedOps                     0                       # Number of ops (including micro ops) committed
system.switch_cpus.dtb.rdAccesses                   0                       # TLB accesses on read requests
system.switch_cpus.dtb.rdMisses                     0                       # TLB misses on read requests
system.switch_cpus.dtb.wrAccesses                   0                       # TLB accesses on write requests
system.switch_cpus.dtb.wrMisses                     0                       # TLB misses on write requests
system.switch_cpus.idle_fraction                    0                       # Percentage of idle cycles
system.switch_cpus.itb.rdAccesses                   0                       # TLB accesses on read requests
system.switch_cpus.itb.rdMisses                     0                       # TLB misses on read requests
system.switch_cpus.itb.wrAccesses                   0                       # TLB accesses on write requests
system.switch_cpus.itb.wrMisses                     0                       # TLB misses on write requests
system.switch_cpus.not_idle_fraction                1                       # Percentage of non-idle cycles
system.switch_cpus.numCycles                        0                       # number of cpu cycles simulated
system.switch_cpus.numWorkItemsCompleted            0                       # number of work items this cpu completed
system.switch_cpus.numWorkItemsStarted              0                       # number of work items this cpu started
system.switch_cpus.num_busy_cycles                  0                       # Number of busy cycles
system.switch_cpus.num_conditional_control_insts            0                       # number of instructions that are conditional controls
system.switch_cpus.num_fp_alu_accesses              0                       # Number of float alu accesses
system.switch_cpus.num_fp_insts                     0                       # number of float instructions
system.switch_cpus.num_fp_register_reads            0                       # number of times the floating registers were read
system.switch_cpus.num_fp_register_writes            0                       # number of times the floating registers were written
system.switch_cpus.num_func_calls                   0                       # number of times a function call or return occured
system.switch_cpus.num_idle_cycles                  0                       # Number of idle cycles
system.switch_cpus.num_int_alu_accesses             0                       # Number of integer alu accesses
system.switch_cpus.num_int_insts                    0                       # number of integer instructions
system.switch_cpus.num_int_register_reads            0                       # number of times the integer registers were read
system.switch_cpus.num_int_register_writes            0                       # number of times the integer registers were written
system.switch_cpus.num_load_insts                   0                       # Number of load instructions
system.switch_cpus.num_mem_refs                     0                       # number of memory refs
system.switch_cpus.num_store_insts                  0                       # Number of store instructions
system.switch_cpus.num_vec_alu_accesses             0                       # Number of vector alu accesses
system.switch_cpus.num_vec_insts                    0                       # number of vector instructions
system.switch_cpus.num_vec_register_reads            0                       # number of times the vector registers were read
system.switch_cpus.num_vec_register_writes            0                       # number of times the vector registers were written
system.switch_cpus.op_class::No_OpClass             0                       # Class of executed instruction
system.switch_cpus.op_class::IntAlu                 0                       # Class of executed instruction
system.switch_cpus.op_class::IntMult                0                       # Class of executed instruction
system.switch_cpus.op_class::IntDiv                 0                       # Class of executed instruction
system.switch_cpus.op_class::FloatAdd               0                       # Class of executed instruction
system.switch_cpus.op_class::FloatCmp               0                       # Class of executed instruction
system.switch_cpus.op_class::FloatCvt               0                       # Class of executed instruction
system.switch_cpus.op_class::FloatMult              0                       # Class of executed instruction
system.switch_cpus.op_class::FloatMultAcc            0                       # Class of executed instruction
system.switch_cpus.op_class::FloatDiv               0                       # Class of executed instruction
system.switch_cpus.op_class::FloatMisc              0                       # Class of executed instruction
system.switch_cpus.op_class::FloatSqrt              0                       # Class of executed instruction
system.switch_cpus.op_class::SimdAdd                0                       # Class of executed instruction
system.switch_cpus.op_class::SimdAddAcc             0                       # Class of executed instruction
system.switch_cpus.op_class::SimdAlu                0                       # Class of executed instruction
system.switch_cpus.op_class::SimdCmp                0                       # Class of executed instruction
system.switch_cpus.op_class::SimdCvt                0                       # Class of executed instruction
system.switch_cpus.op_class::SimdMisc               0                       # Class of executed instruction
system.switch_cpus.op_class::SimdMult               0                       # Class of executed instruction
system.switch_cpus.op_class::SimdMultAcc            0                       # Class of executed instruction
system.switch_cpus.op_class::SimdShift              0                       # Class of executed instruction
system.switch_cpus.op_class::SimdShiftAcc            0                       # Class of executed instruction
system.switch_cpus.op_class::SimdDiv                0                       # Class of executed instruction
system.switch_cpus.op_class::SimdSqrt               0                       # Class of executed instruction
system.switch_cpus.op_class::SimdFloatAdd            0                       # Class of executed instruction
system.switch_cpus.op_class::SimdFloatAlu            0                       # Class of executed instruction
system.switch_cpus.op_class::SimdFloatCmp            0                       # Class of executed instruction
system.switch_cpus.op_class::SimdFloatCvt            0                       # Class of executed instruction
system.switch_cpus.op_class::SimdFloatDiv            0                       # Class of executed instruction
system.switch_cpus.op_class::SimdFloatMisc            0                       # Class of executed instruction
system.switch_cpus.op_class::SimdFloatMult            0                       # Class of executed instruction
system.switch_cpus.op_class::SimdFloatMultAcc            0                       # Class of executed instruction
system.switch_cpus.op_class::SimdFloatSqrt            0                       # Class of executed instruction
system.switch_cpus.op_class::SimdReduceAdd            0                       # Class of executed instruction
system.switch_cpus.op_class::SimdReduceAlu            0                       # Class of executed instruction
system.switch_cpus.op_class::SimdReduceCmp            0                       # Class of executed instruction
system.switch_cpus.op_class::SimdFloatReduceAdd            0                       # Class of executed instruction
system.switch_cpus.op_class::SimdFloatReduceCmp            0                       # Class of executed instruction
system.switch_cpus.op_class::SimdAes                0                       # Class of executed instruction
system.switch_cpus.op_class::SimdAesMix             0                       # Class of executed instruction
system.switch_cpus.op_class::SimdSha1Hash            0                       # Class of executed instruction
system.switch_cpus.op_class::SimdSha1Hash2            0                       # Class of executed instruction
system.switch_cpus.op_class::SimdSha256Hash            0                       # Class of executed instruction
system.switch_cpus.op_class::SimdSha256Hash2            0                       # Class of executed instruction
system.switch_cpus.op_class::SimdShaSigma2            0                       # Class of executed instruction
system.switch_cpus.op_class::SimdShaSigma3            0                       # Class of executed instruction
system.switch_cpus.op_class::SimdPredAlu            0                       # Class of executed instruction
system.switch_cpus.op_class::MemRead                0                       # Class of executed instruction
system.switch_cpus.op_class::MemWrite               0                       # Class of executed instruction
system.switch_cpus.op_class::FloatMemRead            0                       # Class of executed instruction
system.switch_cpus.op_class::FloatMemWrite            0                       # Class of executed instruction
system.switch_cpus.op_class::IprAccess              0                       # Class of executed instruction
system.switch_cpus.op_class::InstPrefetch            0                       # Class of executed instruction
system.switch_cpus.op_class::total                  0                       # Class of executed instruction
system.switch_cpus_1.branchPred.BTBCorrect            0                       # Number of correct BTB predictions (this stat may not work properly.
system.switch_cpus_1.branchPred.BTBHitPct          nan                       # BTB Hit Percentage
system.switch_cpus_1.branchPred.BTBHits             0                       # Number of BTB hits
system.switch_cpus_1.branchPred.BTBLookups            0                       # Number of BTB lookups
system.switch_cpus_1.branchPred.RASInCorrect          379                       # Number of incorrect RAS predictions.
system.switch_cpus_1.branchPred.condIncorrect     11939889                       # Number of conditional branches incorrect
system.switch_cpus_1.branchPred.condPredicted    221600000                       # Number of conditional branches predicted
system.switch_cpus_1.branchPred.indirectHits    100943103                       # Number of indirect target hits.
system.switch_cpus_1.branchPred.indirectLookups    124864731                       # Number of indirect predictor lookups.
system.switch_cpus_1.branchPred.indirectMisses     23921628                       # Number of indirect misses.
system.switch_cpus_1.branchPred.lookups     246773961                       # Number of BP lookups
system.switch_cpus_1.branchPred.usedRAS      12146573                       # Number of times the RAS was used to get a target.
system.switch_cpus_1.branchPredindirectMispredicted      8011751                       # Number of mispredicted indirect branches.
system.switch_cpus_1.cc_regfile_reads      1022580640                       # number of cc regfile reads
system.switch_cpus_1.cc_regfile_writes      589791108                       # number of cc regfile writes
system.switch_cpus_1.commit.amos                    0                       # Number of atomic instructions committed
system.switch_cpus_1.commit.branchMispredicts     11941893                       # The number of times a branch was mispredicted
system.switch_cpus_1.commit.branches        186020285                       # Number of branches committed
system.switch_cpus_1.commit.bw_lim_events    124871874                       # number cycles where commit BW limit reached
system.switch_cpus_1.commit.commitNonSpecStalls          778                       # The number of times commit has been forced to stall to communicate backwards
system.switch_cpus_1.commit.commitSquashedInsts    409328736                       # The number of squashed insts skipped by commit
system.switch_cpus_1.commit.committedInsts   1000000001                       # Number of instructions committed
system.switch_cpus_1.commit.committedOps   1913177477                       # Number of ops (including micro ops) committed
system.switch_cpus_1.commit.committed_per_cycle::samples    728274400                       # Number of insts commited each cycle
system.switch_cpus_1.commit.committed_per_cycle::mean     2.627001                       # Number of insts commited each cycle
system.switch_cpus_1.commit.committed_per_cycle::stdev     2.962730                       # Number of insts commited each cycle
system.switch_cpus_1.commit.committed_per_cycle::underflows            0      0.00%      0.00% # Number of insts commited each cycle
system.switch_cpus_1.commit.committed_per_cycle::0    267084029     36.67%     36.67% # Number of insts commited each cycle
system.switch_cpus_1.commit.committed_per_cycle::1    104937026     14.41%     51.08% # Number of insts commited each cycle
system.switch_cpus_1.commit.committed_per_cycle::2     65218234      8.96%     60.04% # Number of insts commited each cycle
system.switch_cpus_1.commit.committed_per_cycle::3     80929823     11.11%     71.15% # Number of insts commited each cycle
system.switch_cpus_1.commit.committed_per_cycle::4     32732382      4.49%     75.64% # Number of insts commited each cycle
system.switch_cpus_1.commit.committed_per_cycle::5     23731054      3.26%     78.90% # Number of insts commited each cycle
system.switch_cpus_1.commit.committed_per_cycle::6     14935122      2.05%     80.95% # Number of insts commited each cycle
system.switch_cpus_1.commit.committed_per_cycle::7     13834856      1.90%     82.85% # Number of insts commited each cycle
system.switch_cpus_1.commit.committed_per_cycle::8    124871874     17.15%    100.00% # Number of insts commited each cycle
system.switch_cpus_1.commit.committed_per_cycle::overflows            0      0.00%    100.00% # Number of insts commited each cycle
system.switch_cpus_1.commit.committed_per_cycle::min_value            0                       # Number of insts commited each cycle
system.switch_cpus_1.commit.committed_per_cycle::max_value            8                       # Number of insts commited each cycle
system.switch_cpus_1.commit.committed_per_cycle::total    728274400                       # Number of insts commited each cycle
system.switch_cpus_1.commit.fp_insts        342164187                       # Number of committed floating point instructions.
system.switch_cpus_1.commit.function_calls      9247179                       # Number of function calls committed.
system.switch_cpus_1.commit.int_insts      1644843513                       # Number of committed integer instructions.
system.switch_cpus_1.commit.loads           234446733                       # Number of loads committed
system.switch_cpus_1.commit.membars               140                       # Number of memory barriers committed
system.switch_cpus_1.commit.op_class_0::No_OpClass      5783843      0.30%      0.30% # Class of committed instruction
system.switch_cpus_1.commit.op_class_0::IntAlu   1346449001     70.38%     70.68% # Class of committed instruction
system.switch_cpus_1.commit.op_class_0::IntMult      1181117      0.06%     70.74% # Class of committed instruction
system.switch_cpus_1.commit.op_class_0::IntDiv      5794698      0.30%     71.04% # Class of committed instruction
system.switch_cpus_1.commit.op_class_0::FloatAdd     46866852      2.45%     73.49% # Class of committed instruction
system.switch_cpus_1.commit.op_class_0::FloatCmp            0      0.00%     73.49% # Class of committed instruction
system.switch_cpus_1.commit.op_class_0::FloatCvt          112      0.00%     73.49% # Class of committed instruction
system.switch_cpus_1.commit.op_class_0::FloatMult            0      0.00%     73.49% # Class of committed instruction
system.switch_cpus_1.commit.op_class_0::FloatMultAcc            0      0.00%     73.49% # Class of committed instruction
system.switch_cpus_1.commit.op_class_0::FloatDiv            0      0.00%     73.49% # Class of committed instruction
system.switch_cpus_1.commit.op_class_0::FloatMisc            0      0.00%     73.49% # Class of committed instruction
system.switch_cpus_1.commit.op_class_0::FloatSqrt            0      0.00%     73.49% # Class of committed instruction
system.switch_cpus_1.commit.op_class_0::SimdAdd            0      0.00%     73.49% # Class of committed instruction
system.switch_cpus_1.commit.op_class_0::SimdAddAcc            0      0.00%     73.49% # Class of committed instruction
system.switch_cpus_1.commit.op_class_0::SimdAlu     22244818      1.16%     74.66% # Class of committed instruction
system.switch_cpus_1.commit.op_class_0::SimdCmp       687450      0.04%     74.69% # Class of committed instruction
system.switch_cpus_1.commit.op_class_0::SimdCvt      4362488      0.23%     74.92% # Class of committed instruction
system.switch_cpus_1.commit.op_class_0::SimdMisc     12842429      0.67%     75.59% # Class of committed instruction
system.switch_cpus_1.commit.op_class_0::SimdMult            0      0.00%     75.59% # Class of committed instruction
system.switch_cpus_1.commit.op_class_0::SimdMultAcc            0      0.00%     75.59% # Class of committed instruction
system.switch_cpus_1.commit.op_class_0::SimdShift            0      0.00%     75.59% # Class of committed instruction
system.switch_cpus_1.commit.op_class_0::SimdShiftAcc            0      0.00%     75.59% # Class of committed instruction
system.switch_cpus_1.commit.op_class_0::SimdDiv            0      0.00%     75.59% # Class of committed instruction
system.switch_cpus_1.commit.op_class_0::SimdSqrt            0      0.00%     75.59% # Class of committed instruction
system.switch_cpus_1.commit.op_class_0::SimdFloatAdd     49159879      2.57%     78.16% # Class of committed instruction
system.switch_cpus_1.commit.op_class_0::SimdFloatAlu            0      0.00%     78.16% # Class of committed instruction
system.switch_cpus_1.commit.op_class_0::SimdFloatCmp            0      0.00%     78.16% # Class of committed instruction
system.switch_cpus_1.commit.op_class_0::SimdFloatCvt     45731328      2.39%     80.55% # Class of committed instruction
system.switch_cpus_1.commit.op_class_0::SimdFloatDiv      1922135      0.10%     80.65% # Class of committed instruction
system.switch_cpus_1.commit.op_class_0::SimdFloatMisc            0      0.00%     80.65% # Class of committed instruction
system.switch_cpus_1.commit.op_class_0::SimdFloatMult     22831089      1.19%     81.85% # Class of committed instruction
system.switch_cpus_1.commit.op_class_0::SimdFloatMultAcc            0      0.00%     81.85% # Class of committed instruction
system.switch_cpus_1.commit.op_class_0::SimdFloatSqrt            0      0.00%     81.85% # Class of committed instruction
system.switch_cpus_1.commit.op_class_0::SimdReduceAdd            0      0.00%     81.85% # Class of committed instruction
system.switch_cpus_1.commit.op_class_0::SimdReduceAlu            0      0.00%     81.85% # Class of committed instruction
system.switch_cpus_1.commit.op_class_0::SimdReduceCmp            0      0.00%     81.85% # Class of committed instruction
system.switch_cpus_1.commit.op_class_0::SimdFloatReduceAdd            0      0.00%     81.85% # Class of committed instruction
system.switch_cpus_1.commit.op_class_0::SimdFloatReduceCmp            0      0.00%     81.85% # Class of committed instruction
system.switch_cpus_1.commit.op_class_0::SimdAes            0      0.00%     81.85% # Class of committed instruction
system.switch_cpus_1.commit.op_class_0::SimdAesMix            0      0.00%     81.85% # Class of committed instruction
system.switch_cpus_1.commit.op_class_0::SimdSha1Hash            0      0.00%     81.85% # Class of committed instruction
system.switch_cpus_1.commit.op_class_0::SimdSha1Hash2            0      0.00%     81.85% # Class of committed instruction
system.switch_cpus_1.commit.op_class_0::SimdSha256Hash            0      0.00%     81.85% # Class of committed instruction
system.switch_cpus_1.commit.op_class_0::SimdSha256Hash2            0      0.00%     81.85% # Class of committed instruction
system.switch_cpus_1.commit.op_class_0::SimdShaSigma2            0      0.00%     81.85% # Class of committed instruction
system.switch_cpus_1.commit.op_class_0::SimdShaSigma3            0      0.00%     81.85% # Class of committed instruction
system.switch_cpus_1.commit.op_class_0::SimdPredAlu            0      0.00%     81.85% # Class of committed instruction
system.switch_cpus_1.commit.op_class_0::MemRead    174644758      9.13%     90.97% # Class of committed instruction
system.switch_cpus_1.commit.op_class_0::MemWrite    102526795      5.36%     96.33% # Class of committed instruction
system.switch_cpus_1.commit.op_class_0::FloatMemRead     59801975      3.13%     99.46% # Class of committed instruction
system.switch_cpus_1.commit.op_class_0::FloatMemWrite     10346710      0.54%    100.00% # Class of committed instruction
system.switch_cpus_1.commit.op_class_0::IprAccess            0      0.00%    100.00% # Class of committed instruction
system.switch_cpus_1.commit.op_class_0::InstPrefetch            0      0.00%    100.00% # Class of committed instruction
system.switch_cpus_1.commit.op_class_0::total   1913177477                       # Class of committed instruction
system.switch_cpus_1.commit.refs            347320238                       # Number of memory references committed
system.switch_cpus_1.commit.swp_count               0                       # Number of s/w prefetches committed
system.switch_cpus_1.commit.vec_insts               0                       # Number of committed Vector instructions.
system.switch_cpus_1.committedInsts        1000000001                       # Number of Instructions Simulated
system.switch_cpus_1.committedOps          1913177477                       # Number of Ops (including micro ops) Simulated
system.switch_cpus_1.cpi                     0.788227                       # CPI: Cycles Per Instruction
system.switch_cpus_1.cpi_total               0.788227                       # CPI: Total CPI of All Threads
system.switch_cpus_1.decode.BlockedCycles    187963313                       # Number of cycles decode is blocked
system.switch_cpus_1.decode.DecodedInsts   2489867123                       # Number of instructions handled by decode
system.switch_cpus_1.decode.IdleCycles      198780338                       # Number of cycles decode is idle
system.switch_cpus_1.decode.RunCycles       369158207                       # Number of cycles decode is running
system.switch_cpus_1.decode.SquashCycles     11953665                       # Number of cycles decode is squashing
system.switch_cpus_1.decode.UnblockCycles     19140033                       # Number of cycles decode is unblocking
system.switch_cpus_1.dtb.rdAccesses         262897606                       # TLB accesses on read requests
system.switch_cpus_1.dtb.rdMisses              951891                       # TLB misses on read requests
system.switch_cpus_1.dtb.wrAccesses         121602283                       # TLB accesses on write requests
system.switch_cpus_1.dtb.wrMisses              111275                       # TLB misses on write requests
system.switch_cpus_1.fetch.Branches         246773961                       # Number of branches that fetch encountered
system.switch_cpus_1.fetch.CacheLines       194197753                       # Number of cache lines fetched
system.switch_cpus_1.fetch.Cycles           558406351                       # Number of cycles fetch has run and was not squashing or blocked
system.switch_cpus_1.fetch.IcacheSquashes      3278105                       # Number of outstanding Icache misses that were squashed
system.switch_cpus_1.fetch.IcacheWaitRetryStallCycles          442                       # Number of stall cycles due to full MSHR
system.switch_cpus_1.fetch.Insts           1343378686                       # Number of instructions fetch has processed
system.switch_cpus_1.fetch.MiscStallCycles         3349                       # Number of cycles fetch has spent waiting on interrupts, or bad addresses, or out of MSHRs
system.switch_cpus_1.fetch.PendingTrapStallCycles        20318                       # Number of stall cycles due to pending traps
system.switch_cpus_1.fetch.SquashCycles      23907330                       # Number of cycles fetch has spent squashing
system.switch_cpus_1.fetch.branchRate        0.313075                       # Number of branch fetches per cycle
system.switch_cpus_1.fetch.icacheStallCycles    216611438                       # Number of cycles fetch is stalled on an Icache miss
system.switch_cpus_1.fetch.predictedBranches    113089676                       # Number of branches that fetch has predicted taken
system.switch_cpus_1.fetch.rate              1.704304                       # Number of inst fetches per cycle
system.switch_cpus_1.fetch.rateDist::samples    786995563                       # Number of instructions fetched each cycle (Total)
system.switch_cpus_1.fetch.rateDist::mean     3.253261                       # Number of instructions fetched each cycle (Total)
system.switch_cpus_1.fetch.rateDist::stdev     3.544380                       # Number of instructions fetched each cycle (Total)
system.switch_cpus_1.fetch.rateDist::underflows            0      0.00%      0.00% # Number of instructions fetched each cycle (Total)
system.switch_cpus_1.fetch.rateDist::0      369508463     46.95%     46.95% # Number of instructions fetched each cycle (Total)
system.switch_cpus_1.fetch.rateDist::1       29576123      3.76%     50.71% # Number of instructions fetched each cycle (Total)
system.switch_cpus_1.fetch.rateDist::2       25902521      3.29%     54.00% # Number of instructions fetched each cycle (Total)
system.switch_cpus_1.fetch.rateDist::3       34153739      4.34%     58.34% # Number of instructions fetched each cycle (Total)
system.switch_cpus_1.fetch.rateDist::4       20312419      2.58%     60.92% # Number of instructions fetched each cycle (Total)
system.switch_cpus_1.fetch.rateDist::5       32531446      4.13%     65.06% # Number of instructions fetched each cycle (Total)
system.switch_cpus_1.fetch.rateDist::6       24761427      3.15%     68.20% # Number of instructions fetched each cycle (Total)
system.switch_cpus_1.fetch.rateDist::7       18011034      2.29%     70.49% # Number of instructions fetched each cycle (Total)
system.switch_cpus_1.fetch.rateDist::8      232238391     29.51%    100.00% # Number of instructions fetched each cycle (Total)
system.switch_cpus_1.fetch.rateDist::overflows            0      0.00%    100.00% # Number of instructions fetched each cycle (Total)
system.switch_cpus_1.fetch.rateDist::min_value            0                       # Number of instructions fetched each cycle (Total)
system.switch_cpus_1.fetch.rateDist::max_value            8                       # Number of instructions fetched each cycle (Total)
system.switch_cpus_1.fetch.rateDist::total    786995563                       # Number of instructions fetched each cycle (Total)
system.switch_cpus_1.fp_regfile_reads       589232376                       # number of floating regfile reads
system.switch_cpus_1.fp_regfile_writes      343216430                       # number of floating regfile writes
system.switch_cpus_1.idleCycles               1231445                       # Total number of cycles that the CPU has spent unscheduled due to idling
system.switch_cpus_1.iew.branchMispredicts     15063133                       # Number of branch mispredicts detected at execute
system.switch_cpus_1.iew.exec_branches      202985782                       # Number of branches executed
system.switch_cpus_1.iew.exec_nop                   0                       # number of nop insts executed
system.switch_cpus_1.iew.exec_rate           2.721968                       # Inst execution rate
system.switch_cpus_1.iew.exec_refs          385028993                       # number of memory reference insts executed
system.switch_cpus_1.iew.exec_stores        121547204                       # Number of stores executed
system.switch_cpus_1.iew.exec_swp                   0                       # number of swp insts executed
system.switch_cpus_1.iew.iewBlockCycles      95563768                       # Number of cycles IEW is blocking
system.switch_cpus_1.iew.iewDispLoadInsts    283129784                       # Number of dispatched load instructions
system.switch_cpus_1.iew.iewDispNonSpecInsts       146071                       # Number of dispatched non-speculative instructions
system.switch_cpus_1.iew.iewDispSquashedInsts       689491                       # Number of squashed instructions skipped by dispatch
system.switch_cpus_1.iew.iewDispStoreInsts    132884153                       # Number of dispatched store instructions
system.switch_cpus_1.iew.iewDispatchedInsts   2322596681                       # Number of instructions dispatched to IQ
system.switch_cpus_1.iew.iewExecLoadInsts    263481789                       # Number of load instructions executed
system.switch_cpus_1.iew.iewExecSquashedInsts     30663324                       # Number of squashed instructions skipped in execute
system.switch_cpus_1.iew.iewExecutedInsts   2145528830                       # Number of executed instructions
system.switch_cpus_1.iew.iewIQFullEvents       685851                       # Number of times the IQ has become full, causing a stall
system.switch_cpus_1.iew.iewIdleCycles              0                       # Number of cycles IEW is idle
system.switch_cpus_1.iew.iewLSQFullEvents     17966628                       # Number of times the LSQ has become full, causing a stall
system.switch_cpus_1.iew.iewSquashCycles     11953665                       # Number of cycles IEW is squashing
system.switch_cpus_1.iew.iewUnblockCycles     18890864                       # Number of cycles IEW is unblocking
system.switch_cpus_1.iew.lsq.thread0.blockedLoads            0                       # Number of blocked loads due to partial load-store forwarding
system.switch_cpus_1.iew.lsq.thread0.cacheBlocked       180015                       # Number of times an access to memory failed due to the cache being blocked
system.switch_cpus_1.iew.lsq.thread0.forwLoads     28091200                       # Number of loads that had data forwarded from stores
system.switch_cpus_1.iew.lsq.thread0.ignoredResponses       174887                       # Number of memory responses ignored because the instruction is squashed
system.switch_cpus_1.iew.lsq.thread0.invAddrLoads            0                       # Number of loads ignored due to an invalid address
system.switch_cpus_1.iew.lsq.thread0.invAddrSwpfs            0                       # Number of software prefetches ignored due to an invalid address
system.switch_cpus_1.iew.lsq.thread0.memOrderViolation        14856                       # Number of memory ordering violations
system.switch_cpus_1.iew.lsq.thread0.rescheduledLoads        83111                       # Number of loads that were rescheduled
system.switch_cpus_1.iew.lsq.thread0.squashedLoads     48683046                       # Number of loads squashed
system.switch_cpus_1.iew.lsq.thread0.squashedStores     20010645                       # Number of stores squashed
system.switch_cpus_1.iew.memOrderViolationEvents        14856                       # Number of memory order violations
system.switch_cpus_1.iew.predictedNotTakenIncorrect     13439439                       # Number of branches that were predicted not taken incorrectly
system.switch_cpus_1.iew.predictedTakenIncorrect      1623694                       # Number of branches that were predicted taken incorrectly
system.switch_cpus_1.iew.wb_consumers      2532641678                       # num instructions consuming a value
system.switch_cpus_1.iew.wb_count          2133466263                       # cumulative count of insts written-back
system.switch_cpus_1.iew.wb_fanout           0.620592                       # average fanout of values written-back
system.switch_cpus_1.iew.wb_producers      1571737028                       # num instructions producing a value
system.switch_cpus_1.iew.wb_rate             2.706665                       # insts written-back per cycle
system.switch_cpus_1.iew.wb_sent           2138939446                       # cumulative count of insts sent to commit
system.switch_cpus_1.int_regfile_reads     2657778985                       # number of integer regfile reads
system.switch_cpus_1.int_regfile_writes    1448581546                       # number of integer regfile writes
system.switch_cpus_1.ipc                     1.268670                       # IPC: Instructions Per Cycle
system.switch_cpus_1.ipc_total               1.268670                       # IPC: Total IPC of All Threads
system.switch_cpus_1.iq.FU_type_0::No_OpClass     10107699      0.46%      0.46% # Type of FU issued
system.switch_cpus_1.iq.FU_type_0::IntAlu   1534376909     70.51%     70.97% # Type of FU issued
system.switch_cpus_1.iq.FU_type_0::IntMult      1247978      0.06%     71.03% # Type of FU issued
system.switch_cpus_1.iq.FU_type_0::IntDiv      5973538      0.27%     71.30% # Type of FU issued
system.switch_cpus_1.iq.FU_type_0::FloatAdd     55508342      2.55%     73.85% # Type of FU issued
system.switch_cpus_1.iq.FU_type_0::FloatCmp            0      0.00%     73.85% # Type of FU issued
system.switch_cpus_1.iq.FU_type_0::FloatCvt          551      0.00%     73.85% # Type of FU issued
system.switch_cpus_1.iq.FU_type_0::FloatMult            1      0.00%     73.85% # Type of FU issued
system.switch_cpus_1.iq.FU_type_0::FloatMultAcc            0      0.00%     73.85% # Type of FU issued
system.switch_cpus_1.iq.FU_type_0::FloatDiv            0      0.00%     73.85% # Type of FU issued
system.switch_cpus_1.iq.FU_type_0::FloatMisc            0      0.00%     73.85% # Type of FU issued
system.switch_cpus_1.iq.FU_type_0::FloatSqrt            0      0.00%     73.85% # Type of FU issued
system.switch_cpus_1.iq.FU_type_0::SimdAdd            0      0.00%     73.85% # Type of FU issued
system.switch_cpus_1.iq.FU_type_0::SimdAddAcc            0      0.00%     73.85% # Type of FU issued
system.switch_cpus_1.iq.FU_type_0::SimdAlu     25027877      1.15%     75.00% # Type of FU issued
system.switch_cpus_1.iq.FU_type_0::SimdCmp       723100      0.03%     75.04% # Type of FU issued
system.switch_cpus_1.iq.FU_type_0::SimdCvt      5427468      0.25%     75.29% # Type of FU issued
system.switch_cpus_1.iq.FU_type_0::SimdMisc     14823479      0.68%     75.97% # Type of FU issued
system.switch_cpus_1.iq.FU_type_0::SimdMult            0      0.00%     75.97% # Type of FU issued
system.switch_cpus_1.iq.FU_type_0::SimdMultAcc            0      0.00%     75.97% # Type of FU issued
system.switch_cpus_1.iq.FU_type_0::SimdShift            0      0.00%     75.97% # Type of FU issued
system.switch_cpus_1.iq.FU_type_0::SimdShiftAcc            0      0.00%     75.97% # Type of FU issued
system.switch_cpus_1.iq.FU_type_0::SimdDiv            0      0.00%     75.97% # Type of FU issued
system.switch_cpus_1.iq.FU_type_0::SimdSqrt            0      0.00%     75.97% # Type of FU issued
system.switch_cpus_1.iq.FU_type_0::SimdFloatAdd     54382802      2.50%     78.47% # Type of FU issued
system.switch_cpus_1.iq.FU_type_0::SimdFloatAlu            0      0.00%     78.47% # Type of FU issued
system.switch_cpus_1.iq.FU_type_0::SimdFloatCmp            0      0.00%     78.47% # Type of FU issued
system.switch_cpus_1.iq.FU_type_0::SimdFloatCvt     49860865      2.29%     80.76% # Type of FU issued
system.switch_cpus_1.iq.FU_type_0::SimdFloatDiv      1924422      0.09%     80.85% # Type of FU issued
system.switch_cpus_1.iq.FU_type_0::SimdFloatMisc            0      0.00%     80.85% # Type of FU issued
system.switch_cpus_1.iq.FU_type_0::SimdFloatMult     23656183      1.09%     81.93% # Type of FU issued
system.switch_cpus_1.iq.FU_type_0::SimdFloatMultAcc            0      0.00%     81.93% # Type of FU issued
system.switch_cpus_1.iq.FU_type_0::SimdFloatSqrt            0      0.00%     81.93% # Type of FU issued
system.switch_cpus_1.iq.FU_type_0::SimdReduceAdd            0      0.00%     81.93% # Type of FU issued
system.switch_cpus_1.iq.FU_type_0::SimdReduceAlu            0      0.00%     81.93% # Type of FU issued
system.switch_cpus_1.iq.FU_type_0::SimdReduceCmp            0      0.00%     81.93% # Type of FU issued
system.switch_cpus_1.iq.FU_type_0::SimdFloatReduceAdd            0      0.00%     81.93% # Type of FU issued
system.switch_cpus_1.iq.FU_type_0::SimdFloatReduceCmp            0      0.00%     81.93% # Type of FU issued
system.switch_cpus_1.iq.FU_type_0::SimdAes            0      0.00%     81.93% # Type of FU issued
system.switch_cpus_1.iq.FU_type_0::SimdAesMix            0      0.00%     81.93% # Type of FU issued
system.switch_cpus_1.iq.FU_type_0::SimdSha1Hash            0      0.00%     81.93% # Type of FU issued
system.switch_cpus_1.iq.FU_type_0::SimdSha1Hash2            0      0.00%     81.93% # Type of FU issued
system.switch_cpus_1.iq.FU_type_0::SimdSha256Hash            0      0.00%     81.93% # Type of FU issued
system.switch_cpus_1.iq.FU_type_0::SimdSha256Hash2            0      0.00%     81.93% # Type of FU issued
system.switch_cpus_1.iq.FU_type_0::SimdShaSigma2            0      0.00%     81.93% # Type of FU issued
system.switch_cpus_1.iq.FU_type_0::SimdShaSigma3            0      0.00%     81.93% # Type of FU issued
system.switch_cpus_1.iq.FU_type_0::SimdPredAlu            0      0.00%     81.93% # Type of FU issued
system.switch_cpus_1.iq.FU_type_0::MemRead    197649557      9.08%     91.02% # Type of FU issued
system.switch_cpus_1.iq.FU_type_0::MemWrite    112455911      5.17%     96.18% # Type of FU issued
system.switch_cpus_1.iq.FU_type_0::FloatMemRead     70951453      3.26%     99.44% # Type of FU issued
system.switch_cpus_1.iq.FU_type_0::FloatMemWrite     12094023      0.56%    100.00% # Type of FU issued
system.switch_cpus_1.iq.FU_type_0::IprAccess            0      0.00%    100.00% # Type of FU issued
system.switch_cpus_1.iq.FU_type_0::InstPrefetch            0      0.00%    100.00% # Type of FU issued
system.switch_cpus_1.iq.FU_type_0::total   2176192158                       # Type of FU issued
system.switch_cpus_1.iq.fp_alu_accesses     395212395                       # Number of floating point alu accesses
system.switch_cpus_1.iq.fp_inst_queue_reads    788975914                       # Number of floating instruction queue reads
system.switch_cpus_1.iq.fp_inst_queue_wakeup_accesses    385739568                       # Number of floating instruction queue wakeup accesses
system.switch_cpus_1.iq.fp_inst_queue_writes    516865413                       # Number of floating instruction queue writes
system.switch_cpus_1.iq.fu_busy_cnt          25847651                       # FU busy when requested
system.switch_cpus_1.iq.fu_busy_rate         0.011877                       # FU busy rate (busy events/executed inst)
system.switch_cpus_1.iq.fu_full::No_OpClass            0      0.00%      0.00% # attempts to use FU when none available
system.switch_cpus_1.iq.fu_full::IntAlu      22268524     86.15%     86.15% # attempts to use FU when none available
system.switch_cpus_1.iq.fu_full::IntMult            0      0.00%     86.15% # attempts to use FU when none available
system.switch_cpus_1.iq.fu_full::IntDiv             0      0.00%     86.15% # attempts to use FU when none available
system.switch_cpus_1.iq.fu_full::FloatAdd            0      0.00%     86.15% # attempts to use FU when none available
system.switch_cpus_1.iq.fu_full::FloatCmp            0      0.00%     86.15% # attempts to use FU when none available
system.switch_cpus_1.iq.fu_full::FloatCvt            1      0.00%     86.15% # attempts to use FU when none available
system.switch_cpus_1.iq.fu_full::FloatMult            0      0.00%     86.15% # attempts to use FU when none available
system.switch_cpus_1.iq.fu_full::FloatMultAcc            0      0.00%     86.15% # attempts to use FU when none available
system.switch_cpus_1.iq.fu_full::FloatDiv            0      0.00%     86.15% # attempts to use FU when none available
system.switch_cpus_1.iq.fu_full::FloatMisc            0      0.00%     86.15% # attempts to use FU when none available
system.switch_cpus_1.iq.fu_full::FloatSqrt            0      0.00%     86.15% # attempts to use FU when none available
system.switch_cpus_1.iq.fu_full::SimdAdd            0      0.00%     86.15% # attempts to use FU when none available
system.switch_cpus_1.iq.fu_full::SimdAddAcc            0      0.00%     86.15% # attempts to use FU when none available
system.switch_cpus_1.iq.fu_full::SimdAlu        10393      0.04%     86.19% # attempts to use FU when none available
system.switch_cpus_1.iq.fu_full::SimdCmp        13017      0.05%     86.24% # attempts to use FU when none available
system.switch_cpus_1.iq.fu_full::SimdCvt       177516      0.69%     86.93% # attempts to use FU when none available
system.switch_cpus_1.iq.fu_full::SimdMisc       115298      0.45%     87.38% # attempts to use FU when none available
system.switch_cpus_1.iq.fu_full::SimdMult            0      0.00%     87.38% # attempts to use FU when none available
system.switch_cpus_1.iq.fu_full::SimdMultAcc            0      0.00%     87.38% # attempts to use FU when none available
system.switch_cpus_1.iq.fu_full::SimdShift            0      0.00%     87.38% # attempts to use FU when none available
system.switch_cpus_1.iq.fu_full::SimdShiftAcc            0      0.00%     87.38% # attempts to use FU when none available
system.switch_cpus_1.iq.fu_full::SimdDiv            0      0.00%     87.38% # attempts to use FU when none available
system.switch_cpus_1.iq.fu_full::SimdSqrt            0      0.00%     87.38% # attempts to use FU when none available
system.switch_cpus_1.iq.fu_full::SimdFloatAdd       332559      1.29%     88.66% # attempts to use FU when none available
system.switch_cpus_1.iq.fu_full::SimdFloatAlu            0      0.00%     88.66% # attempts to use FU when none available
system.switch_cpus_1.iq.fu_full::SimdFloatCmp            0      0.00%     88.66% # attempts to use FU when none available
system.switch_cpus_1.iq.fu_full::SimdFloatCvt       984846      3.81%     92.47% # attempts to use FU when none available
system.switch_cpus_1.iq.fu_full::SimdFloatDiv            0      0.00%     92.47% # attempts to use FU when none available
system.switch_cpus_1.iq.fu_full::SimdFloatMisc            0      0.00%     92.47% # attempts to use FU when none available
system.switch_cpus_1.iq.fu_full::SimdFloatMult        20744      0.08%     92.55% # attempts to use FU when none available
system.switch_cpus_1.iq.fu_full::SimdFloatMultAcc            0      0.00%     92.55% # attempts to use FU when none available
system.switch_cpus_1.iq.fu_full::SimdFloatSqrt            0      0.00%     92.55% # attempts to use FU when none available
system.switch_cpus_1.iq.fu_full::SimdReduceAdd            0      0.00%     92.55% # attempts to use FU when none available
system.switch_cpus_1.iq.fu_full::SimdReduceAlu            0      0.00%     92.55% # attempts to use FU when none available
system.switch_cpus_1.iq.fu_full::SimdReduceCmp            0      0.00%     92.55% # attempts to use FU when none available
system.switch_cpus_1.iq.fu_full::SimdFloatReduceAdd            0      0.00%     92.55% # attempts to use FU when none available
system.switch_cpus_1.iq.fu_full::SimdFloatReduceCmp            0      0.00%     92.55% # attempts to use FU when none available
system.switch_cpus_1.iq.fu_full::SimdAes            0      0.00%     92.55% # attempts to use FU when none available
system.switch_cpus_1.iq.fu_full::SimdAesMix            0      0.00%     92.55% # attempts to use FU when none available
system.switch_cpus_1.iq.fu_full::SimdSha1Hash            0      0.00%     92.55% # attempts to use FU when none available
system.switch_cpus_1.iq.fu_full::SimdSha1Hash2            0      0.00%     92.55% # attempts to use FU when none available
system.switch_cpus_1.iq.fu_full::SimdSha256Hash            0      0.00%     92.55% # attempts to use FU when none available
system.switch_cpus_1.iq.fu_full::SimdSha256Hash2            0      0.00%     92.55% # attempts to use FU when none available
system.switch_cpus_1.iq.fu_full::SimdShaSigma2            0      0.00%     92.55% # attempts to use FU when none available
system.switch_cpus_1.iq.fu_full::SimdShaSigma3            0      0.00%     92.55% # attempts to use FU when none available
system.switch_cpus_1.iq.fu_full::SimdPredAlu            0      0.00%     92.55% # attempts to use FU when none available
system.switch_cpus_1.iq.fu_full::MemRead      1262191      4.88%     97.44% # attempts to use FU when none available
system.switch_cpus_1.iq.fu_full::MemWrite       238209      0.92%     98.36% # attempts to use FU when none available
system.switch_cpus_1.iq.fu_full::FloatMemRead       220114      0.85%     99.21% # attempts to use FU when none available
system.switch_cpus_1.iq.fu_full::FloatMemWrite       204239      0.79%    100.00% # attempts to use FU when none available
system.switch_cpus_1.iq.fu_full::IprAccess            0      0.00%    100.00% # attempts to use FU when none available
system.switch_cpus_1.iq.fu_full::InstPrefetch            0      0.00%    100.00% # attempts to use FU when none available
system.switch_cpus_1.iq.int_alu_accesses   1796719715                       # Number of integer alu accesses
system.switch_cpus_1.iq.int_inst_queue_reads   4380110738                       # Number of integer instruction queue reads
system.switch_cpus_1.iq.int_inst_queue_wakeup_accesses   1747726695                       # Number of integer instruction queue wakeup accesses
system.switch_cpus_1.iq.int_inst_queue_writes   2215160795                       # Number of integer instruction queue writes
system.switch_cpus_1.iq.iqInstsAdded       2322166298                       # Number of instructions added to the IQ (excludes non-spec)
system.switch_cpus_1.iq.iqInstsIssued      2176192158                       # Number of instructions issued
system.switch_cpus_1.iq.iqNonSpecInstsAdded       430383                       # Number of non-speculative instructions added to the IQ
system.switch_cpus_1.iq.iqSquashedInstsExamined    409419177                       # Number of squashed instructions iterated over during squash; mainly for profiling
system.switch_cpus_1.iq.iqSquashedInstsIssued      3859126                       # Number of squashed instructions issued
system.switch_cpus_1.iq.iqSquashedNonSpecRemoved       429605                       # Number of squashed non-spec instructions that were removed
system.switch_cpus_1.iq.iqSquashedOperandsExamined    572007500                       # Number of squashed operands that are examined and possibly removed from graph
system.switch_cpus_1.iq.issued_per_cycle::samples    786995563                       # Number of insts issued each cycle
system.switch_cpus_1.iq.issued_per_cycle::mean     2.765190                       # Number of insts issued each cycle
system.switch_cpus_1.iq.issued_per_cycle::stdev     2.502386                       # Number of insts issued each cycle
system.switch_cpus_1.iq.issued_per_cycle::underflows            0      0.00%      0.00% # Number of insts issued each cycle
system.switch_cpus_1.iq.issued_per_cycle::0    245045695     31.14%     31.14% # Number of insts issued each cycle
system.switch_cpus_1.iq.issued_per_cycle::1     64323478      8.17%     39.31% # Number of insts issued each cycle
system.switch_cpus_1.iq.issued_per_cycle::2     86048509     10.93%     50.24% # Number of insts issued each cycle
system.switch_cpus_1.iq.issued_per_cycle::3     87255448     11.09%     61.33% # Number of insts issued each cycle
system.switch_cpus_1.iq.issued_per_cycle::4     85398695     10.85%     72.18% # Number of insts issued each cycle
system.switch_cpus_1.iq.issued_per_cycle::5     75799955      9.63%     81.81% # Number of insts issued each cycle
system.switch_cpus_1.iq.issued_per_cycle::6     72138147      9.17%     90.98% # Number of insts issued each cycle
system.switch_cpus_1.iq.issued_per_cycle::7     43303207      5.50%     96.48% # Number of insts issued each cycle
system.switch_cpus_1.iq.issued_per_cycle::8     27682429      3.52%    100.00% # Number of insts issued each cycle
system.switch_cpus_1.iq.issued_per_cycle::overflows            0      0.00%    100.00% # Number of insts issued each cycle
system.switch_cpus_1.iq.issued_per_cycle::min_value            0                       # Number of insts issued each cycle
system.switch_cpus_1.iq.issued_per_cycle::max_value            8                       # Number of insts issued each cycle
system.switch_cpus_1.iq.issued_per_cycle::total    786995563                       # Number of insts issued each cycle
system.switch_cpus_1.iq.rate                 2.760870                       # Inst issue rate
system.switch_cpus_1.iq.vec_alu_accesses            0                       # Number of vector alu accesses
system.switch_cpus_1.iq.vec_inst_queue_reads            0                       # Number of vector instruction queue reads
system.switch_cpus_1.iq.vec_inst_queue_wakeup_accesses            0                       # Number of vector instruction queue wakeup accesses
system.switch_cpus_1.iq.vec_inst_queue_writes            0                       # Number of vector instruction queue writes
system.switch_cpus_1.itb.rdAccesses                 0                       # TLB accesses on read requests
system.switch_cpus_1.itb.rdMisses                   0                       # TLB misses on read requests
system.switch_cpus_1.itb.wrAccesses         194201198                       # TLB accesses on write requests
system.switch_cpus_1.itb.wrMisses                3873                       # TLB misses on write requests
system.switch_cpus_1.memDep0.conflictingLoads     18475956                       # Number of conflicting loads.
system.switch_cpus_1.memDep0.conflictingStores      4737432                       # Number of conflicting stores.
system.switch_cpus_1.memDep0.insertedLoads    283129784                       # Number of loads inserted to the mem dependence unit.
system.switch_cpus_1.memDep0.insertedStores    132884153                       # Number of stores inserted to the mem dependence unit.
system.switch_cpus_1.misc_regfile_reads     856253114                       # number of misc regfile reads
system.switch_cpus_1.misc_regfile_writes           63                       # number of misc regfile writes
system.switch_cpus_1.numCycles              788227008                       # number of cpu cycles simulated
system.switch_cpus_1.numWorkItemsCompleted            0                       # number of work items this cpu completed
system.switch_cpus_1.numWorkItemsStarted            0                       # number of work items this cpu started
system.switch_cpus_1.rename.BlockCycles     138492721                       # Number of cycles rename is blocking
system.switch_cpus_1.rename.CommittedMaps   2145497261                       # Number of HB maps that are committed
system.switch_cpus_1.rename.IQFullEvents      8155626                       # Number of times rename has blocked due to IQ full
system.switch_cpus_1.rename.IdleCycles      209498374                       # Number of cycles rename is idle
system.switch_cpus_1.rename.LQFullEvents     10020860                       # Number of times rename has blocked due to LQ full
system.switch_cpus_1.rename.ROBFullEvents      2394186                       # Number of times rename has blocked due to ROB full
system.switch_cpus_1.rename.RenameLookups   5962013025                       # Number of register rename lookups that rename has made
system.switch_cpus_1.rename.RenamedInsts   2435586947                       # Number of instructions processed by rename
system.switch_cpus_1.rename.RenamedOperands   2720184812                       # Number of destination operands rename has renamed
system.switch_cpus_1.rename.RunCycles       376015372                       # Number of cycles rename is running
system.switch_cpus_1.rename.SQFullEvents     27764037                       # Number of times rename has blocked due to SQ full
system.switch_cpus_1.rename.SquashCycles     11953665                       # Number of cycles rename is squashing
system.switch_cpus_1.rename.UnblockCycles     50998470                       # Number of cycles rename is unblocking
system.switch_cpus_1.rename.UndoneMaps      574687510                       # Number of HB maps that are undone due to squashing
system.switch_cpus_1.rename.fp_rename_lookups    698164049                       # Number of floating rename lookups
system.switch_cpus_1.rename.int_rename_lookups   3087578599                       # Number of integer rename lookups
system.switch_cpus_1.rename.serializeStallCycles        36954                       # count of cycles rename stalled for serializing inst
system.switch_cpus_1.rename.serializingInsts         6381                       # count of serializing insts renamed
system.switch_cpus_1.rename.skidInsts        50824083                       # count of insts added to the skid buffer
system.switch_cpus_1.rename.tempSerializingInsts         7017                       # count of temporary serializing insts renamed
system.switch_cpus_1.rob.rob_reads         2925867464                       # The number of ROB reads
system.switch_cpus_1.rob.rob_writes        4704184366                       # The number of ROB writes
system.switch_cpus_1.timesIdled                242778                       # Number of times that the entire CPU went into an idle state and unscheduled itself
system.tol2bus.snoop_filter.hit_multi_requests          296                       # Number of requests hitting in the snoop filter with multiple (>1) holders of the requested data.
system.tol2bus.snoop_filter.hit_multi_snoops            1                       # Number of snoops hitting in the snoop filter with multiple (>1) holders of the requested data.
system.tol2bus.snoop_filter.hit_single_requests      2278436                       # Number of requests hitting in the snoop filter with a single holder of the requested data.
system.tol2bus.snoop_filter.hit_single_snoops        80170                       # Number of snoops hitting in the snoop filter with a single holder of the requested data.
system.tol2bus.snoop_filter.tot_requests      4378007                       # Total number of requests made to the snoop filter.
system.tol2bus.snoop_filter.tot_snoops          80171                       # Total number of snoops made to the snoop filter.
system.tol3bus.snoop_filter.hit_multi_requests            0                       # Number of requests hitting in the snoop filter with multiple (>1) holders of the requested data.
system.tol3bus.snoop_filter.hit_multi_snoops            0                       # Number of snoops hitting in the snoop filter with multiple (>1) holders of the requested data.
system.tol3bus.snoop_filter.hit_single_requests      1355464                       # Number of requests hitting in the snoop filter with a single holder of the requested data.
system.tol3bus.snoop_filter.hit_single_snoops       227268                       # Number of snoops hitting in the snoop filter with a single holder of the requested data.
system.tol3bus.snoop_filter.tot_requests      2543797                       # Total number of requests made to the snoop filter.
system.tol3bus.snoop_filter.tot_snoops         227268                       # Total number of snoops made to the snoop filter.
system.membus.trans_dist::ReadResp             889776                       # Transaction distribution
system.membus.trans_dist::WritebackDirty       319918                       # Transaction distribution
system.membus.trans_dist::CleanEvict           726577                       # Transaction distribution
system.membus.trans_dist::UpgradeReq             1474                       # Transaction distribution
system.membus.trans_dist::ReadExReq            156523                       # Transaction distribution
system.membus.trans_dist::ReadExResp           156523                       # Transaction distribution
system.membus.trans_dist::ReadSharedReq        889776                       # Transaction distribution
system.membus.pkt_count_system.l3.mem_side::system.mem_ctrls.port      3140567                       # Packet count per connected master and slave (bytes)
system.membus.pkt_count_system.l3.mem_side::total      3140567                       # Packet count per connected master and slave (bytes)
system.membus.pkt_count::total                3140567                       # Packet count per connected master and slave (bytes)
system.membus.pkt_size_system.l3.mem_side::system.mem_ctrls.port     87437888                       # Cumulative packet size per connected master and slave (bytes)
system.membus.pkt_size_system.l3.mem_side::total     87437888                       # Cumulative packet size per connected master and slave (bytes)
system.membus.pkt_size::total                87437888                       # Cumulative packet size per connected master and slave (bytes)
system.membus.snoops                                0                       # Total snoops (count)
system.membus.snoopTraffic                          0                       # Total snoop traffic (bytes)
system.membus.snoop_fanout::samples           1047773                       # Request fanout histogram
system.membus.snoop_fanout::mean                    0                       # Request fanout histogram
system.membus.snoop_fanout::stdev                   0                       # Request fanout histogram
system.membus.snoop_fanout::underflows              0      0.00%      0.00% # Request fanout histogram
system.membus.snoop_fanout::0                 1047773    100.00%    100.00% # Request fanout histogram
system.membus.snoop_fanout::1                       0      0.00%    100.00% # Request fanout histogram
system.membus.snoop_fanout::overflows               0      0.00%    100.00% # Request fanout histogram
system.membus.snoop_fanout::min_value               0                       # Request fanout histogram
system.membus.snoop_fanout::max_value               0                       # Request fanout histogram
system.membus.snoop_fanout::total             1047773                       # Request fanout histogram
system.membus.reqLayer2.occupancy          3633337000                       # Layer occupancy (ticks)
system.membus.reqLayer2.utilization               0.9                       # Layer utilization (%)
system.membus.respLayer1.occupancy         5534673500                       # Layer occupancy (ticks)
system.membus.respLayer1.utilization              1.4                       # Layer utilization (%)
system.membus.power_state.pwrStateResidencyTicks::UNDEFINED 1653560408500                       # Cumulative time (in ticks) in various power states
system.switch_cpus_1.dtb.walker.power_state.pwrStateResidencyTicks::UNDEFINED 1653560408500                       # Cumulative time (in ticks) in various power states
system.switch_cpus_1.itb.walker.power_state.pwrStateResidencyTicks::UNDEFINED 1653560408500                       # Cumulative time (in ticks) in various power states
system.switch_cpus_1.power_state.pwrStateResidencyTicks::OFF 1653560408500                       # Cumulative time (in ticks) in various power states
system.switch_cpus.dtb.walker.power_state.pwrStateResidencyTicks::UNDEFINED 1653560408500                       # Cumulative time (in ticks) in various power states
system.switch_cpus.itb.walker.power_state.pwrStateResidencyTicks::UNDEFINED 1653560408500                       # Cumulative time (in ticks) in various power states
system.switch_cpus.power_state.numTransitions            1                       # Number of power state transitions
system.switch_cpus.power_state.pwrStateResidencyTicks::OFF 1653560408500                       # Cumulative time (in ticks) in various power states
system.tol2bus.trans_dist::ReadResp           1896305                       # Transaction distribution
system.tol2bus.trans_dist::WritebackDirty       713084                       # Transaction distribution
system.tol2bus.trans_dist::WritebackClean       830315                       # Transaction distribution
system.tol2bus.trans_dist::CleanEvict         1116334                       # Transaction distribution
system.tol2bus.trans_dist::UpgradeReq          179025                       # Transaction distribution
system.tol2bus.trans_dist::UpgradeResp         179025                       # Transaction distribution
system.tol2bus.trans_dist::ReadExReq           203190                       # Transaction distribution
system.tol2bus.trans_dist::ReadExResp          203190                       # Transaction distribution
system.tol2bus.trans_dist::ReadCleanReq       1896305                       # Transaction distribution
system.tol2bus.pkt_count_system.cpu.icache.mem_side::system.l2.cpu_side      2490957                       # Packet count per connected master and slave (bytes)
system.tol2bus.pkt_count_system.cpu.dcache.mem_side::system.l2.cpu_side      4165566                       # Packet count per connected master and slave (bytes)
system.tol2bus.pkt_count::total               6656523                       # Packet count per connected master and slave (bytes)
system.tol2bus.pkt_size_system.cpu.icache.mem_side::system.l2.cpu_side    106280576                       # Cumulative packet size per connected master and slave (bytes)
system.tol2bus.pkt_size_system.cpu.dcache.mem_side::system.l2.cpu_side    105687104                       # Cumulative packet size per connected master and slave (bytes)
system.tol2bus.pkt_size::total              211967680                       # Cumulative packet size per connected master and slave (bytes)
system.tol2bus.snoops                          560250                       # Total snoops (count)
system.tol2bus.snoopTraffic                  21177536                       # Total snoop traffic (bytes)
system.tol2bus.snoop_fanout::samples          2838766                       # Request fanout histogram
system.tol2bus.snoop_fanout::mean            0.028346                       # Request fanout histogram
system.tol2bus.snoop_fanout::stdev           0.165963                       # Request fanout histogram
system.tol2bus.snoop_fanout::underflows             0      0.00%      0.00% # Request fanout histogram
system.tol2bus.snoop_fanout::0                2758298     97.17%     97.17% # Request fanout histogram
system.tol2bus.snoop_fanout::1                  80467      2.83%    100.00% # Request fanout histogram
system.tol2bus.snoop_fanout::2                      1      0.00%    100.00% # Request fanout histogram
system.tol2bus.snoop_fanout::3                      0      0.00%    100.00% # Request fanout histogram
system.tol2bus.snoop_fanout::4                      0      0.00%    100.00% # Request fanout histogram
system.tol2bus.snoop_fanout::overflows              0      0.00%    100.00% # Request fanout histogram
system.tol2bus.snoop_fanout::min_value              0                       # Request fanout histogram
system.tol2bus.snoop_fanout::max_value              2                       # Request fanout histogram
system.tol2bus.snoop_fanout::total            2838766                       # Request fanout histogram
system.tol2bus.reqLayer0.occupancy         3401507500                       # Layer occupancy (ticks)
system.tol2bus.reqLayer0.utilization              0.9                       # Layer utilization (%)
system.tol2bus.respLayer1.occupancy        1993287466                       # Layer occupancy (ticks)
system.tol2bus.respLayer1.utilization             0.5                       # Layer utilization (%)
system.tol2bus.respLayer0.occupancy        1245486496                       # Layer occupancy (ticks)
system.tol2bus.respLayer0.utilization             0.3                       # Layer utilization (%)
system.tol2bus.power_state.pwrStateResidencyTicks::UNDEFINED 1653560408500                       # Cumulative time (in ticks) in various power states
system.voltage_domain.voltage                       1                       # Voltage in Volts
system.clk_domain.clock                          1000                       # Clock period in ticks
system.l2.demand_hits::.switch_cpus_1.inst       827445                       # number of demand (read+write) hits
system.l2.demand_hits::.switch_cpus_1.data        83592                       # number of demand (read+write) hits
system.l2.demand_hits::total                   911037                       # number of demand (read+write) hits
system.l2.overall_hits::.switch_cpus_1.inst       827445                       # number of overall hits
system.l2.overall_hits::.switch_cpus_1.data        83592                       # number of overall hits
system.l2.overall_hits::total                  911037                       # number of overall hits
system.l2.demand_misses::.switch_cpus_1.inst         2874                       # number of demand (read+write) misses
system.l2.demand_misses::.switch_cpus_1.data      1185580                       # number of demand (read+write) misses
system.l2.demand_misses::total                1188454                       # number of demand (read+write) misses
system.l2.overall_misses::.switch_cpus_1.inst         2874                       # number of overall misses
system.l2.overall_misses::.switch_cpus_1.data      1185580                       # number of overall misses
system.l2.overall_misses::total               1188454                       # number of overall misses
system.l2.demand_miss_latency::.switch_cpus_1.inst    287062500                       # number of demand (read+write) miss cycles
system.l2.demand_miss_latency::.switch_cpus_1.data 103151694500                       # number of demand (read+write) miss cycles
system.l2.demand_miss_latency::total     103438757000                       # number of demand (read+write) miss cycles
system.l2.overall_miss_latency::.switch_cpus_1.inst    287062500                       # number of overall miss cycles
system.l2.overall_miss_latency::.switch_cpus_1.data 103151694500                       # number of overall miss cycles
system.l2.overall_miss_latency::total    103438757000                       # number of overall miss cycles
system.l2.demand_accesses::.switch_cpus_1.inst       830319                       # number of demand (read+write) accesses
system.l2.demand_accesses::.switch_cpus_1.data      1269172                       # number of demand (read+write) accesses
system.l2.demand_accesses::total              2099491                       # number of demand (read+write) accesses
system.l2.overall_accesses::.switch_cpus_1.inst       830319                       # number of overall (read+write) accesses
system.l2.overall_accesses::.switch_cpus_1.data      1269172                       # number of overall (read+write) accesses
system.l2.overall_accesses::total             2099491                       # number of overall (read+write) accesses
system.l2.demand_miss_rate::.switch_cpus_1.inst     0.003461                       # miss rate for demand accesses
[...]
system.cpu.dcache.demand_miss_latency::total 471400184258                       # number of demand (read+write) miss cycles
system.cpu.dcache.overall_miss_latency::.switch_cpus.data    601846000                       # number of overall miss cycles
system.cpu.dcache.overall_miss_latency::.switch_cpus_1.data 470798338258                       # number of overall miss cycles
system.cpu.dcache.overall_miss_latency::total 471400184258                       # number of overall miss cycles
system.cpu.dcache.demand_accesses::.cpu.data    398468375                       # number of demand (read+write) accesses
system.cpu.dcache.demand_accesses::.switch_cpus.data     19936531                       # number of demand (read+write) accesses
system.cpu.dcache.demand_accesses::.switch_cpus_1.data    346779843                       # number of demand (read+write) accesses
system.cpu.dcache.demand_accesses::total    765184749                       # number of demand (read+write) accesses
system.cpu.dcache.overall_accesses::.cpu.data    398468375                       # number of overall (read+write) accesses
system.cpu.dcache.overall_accesses::.switch_cpus.data     19936531                       # number of overall (read+write) accesses
system.cpu.dcache.overall_accesses::.switch_cpus_1.data    346779843                       # number of overall (read+write) accesses
system.cpu.dcache.overall_accesses::total    765184749                       # number of overall (read+write) accesses
system.cpu.dcache.demand_miss_rate::.cpu.data     0.000575                       # miss rate for demand accesses
system.cpu.dcache.demand_miss_rate::.switch_cpus.data     0.000475                       # miss rate for demand accesses
system.cpu.dcache.demand_miss_rate::.switch_cpus_1.data     0.019453                       # miss rate for demand accesses
system.cpu.dcache.demand_miss_rate::total     0.009128                       # miss rate for demand accesses
system.cpu.dcache.overall_miss_rate::.cpu.data     0.000575                       # miss rate for overall accesses
system.cpu.dcache.overall_miss_rate::.switch_cpus.data     0.000475                       # miss rate for overall accesses
system.cpu.dcache.overall_miss_rate::.switch_cpus_1.data     0.019453                       # miss rate for overall accesses
system.cpu.dcache.overall_miss_rate::total     0.009128                       # miss rate for overall accesses
system.cpu.dcache.demand_avg_miss_latency::.switch_cpus.data 63593.195266                       # average overall miss latency
system.cpu.dcache.demand_avg_miss_latency::.switch_cpus_1.data 69790.903500                       # average overall miss latency
system.cpu.dcache.demand_avg_miss_latency::total 67491.306490                       # average overall miss latency
system.cpu.dcache.overall_avg_miss_latency::.switch_cpus.data 63593.195266                       # average overall miss latency
system.cpu.dcache.overall_avg_miss_latency::.switch_cpus_1.data 69790.903500                       # average overall miss latency
system.cpu.dcache.overall_avg_miss_latency::total 67491.306490                       # average overall miss latency
system.cpu.dcache.blocked_cycles::no_mshrs      8394466                       # number of cycles access was blocked
system.cpu.dcache.blocked_cycles::no_targets         8528                       # number of cycles access was blocked
system.cpu.dcache.blocked::no_mshrs            204684                       # number of cycles access was blocked
system.cpu.dcache.blocked::no_targets              72                       # number of cycles access was blocked
system.cpu.dcache.avg_blocked_cycles::no_mshrs    41.011833                       # average number of cycles each access was blocked
system.cpu.dcache.avg_blocked_cycles::no_targets   118.444444                       # average number of cycles each access was blocked
system.cpu.dcache.writebacks::.writebacks       512191                       # number of writebacks
system.cpu.dcache.writebacks::total            512191                       # number of writebacks
system.cpu.dcache.demand_mshr_hits::.switch_cpus_1.data      5300958                       # number of demand (read+write) MSHR hits
system.cpu.dcache.demand_mshr_hits::total      5300958                       # number of demand (read+write) MSHR hits
system.cpu.dcache.overall_mshr_hits::.switch_cpus_1.data      5300958                       # number of overall MSHR hits
system.cpu.dcache.overall_mshr_hits::total      5300958                       # number of overall MSHR hits
system.cpu.dcache.demand_mshr_misses::.switch_cpus.data         9464                       # number of demand (read+write) MSHR misses
system.cpu.dcache.demand_mshr_misses::.switch_cpus_1.data      1444883                       # number of demand (read+write) MSHR misses
system.cpu.dcache.demand_mshr_misses::total      1454347                       # number of demand (read+write) MSHR misses
system.cpu.dcache.overall_mshr_misses::.switch_cpus.data         9464                       # number of overall MSHR misses
system.cpu.dcache.overall_mshr_misses::.switch_cpus_1.data      1444883                       # number of overall MSHR misses
system.cpu.dcache.overall_mshr_misses::total      1454347                       # number of overall MSHR misses
system.cpu.dcache.demand_mshr_miss_latency::.switch_cpus.data    592382000                       # number of demand (read+write) MSHR miss cycles
system.cpu.dcache.demand_mshr_miss_latency::.switch_cpus_1.data 110912860258                       # number of demand (read+write) MSHR miss cycles
system.cpu.dcache.demand_mshr_miss_latency::total 111505242258                       # number of demand (read+write) MSHR miss cycles
system.cpu.dcache.overall_mshr_miss_latency::.switch_cpus.data    592382000                       # number of overall MSHR miss cycles
system.cpu.dcache.overall_mshr_miss_latency::.switch_cpus_1.data 110912860258                       # number of overall MSHR miss cycles
system.cpu.dcache.overall_mshr_miss_latency::total 111505242258                       # number of overall MSHR miss cycles
system.cpu.dcache.demand_mshr_miss_rate::.switch_cpus.data     0.000475                       # mshr miss rate for demand accesses
system.cpu.dcache.demand_mshr_miss_rate::.switch_cpus_1.data     0.004167                       # mshr miss rate for demand accesses
system.cpu.dcache.demand_mshr_miss_rate::total     0.001901                       # mshr miss rate for demand accesses
system.cpu.dcache.overall_mshr_miss_rate::.switch_cpus.data     0.000475                       # mshr miss rate for overall accesses
system.cpu.dcache.overall_mshr_miss_rate::.switch_cpus_1.data     0.004167                       # mshr miss rate for overall accesses
system.cpu.dcache.overall_mshr_miss_rate::total     0.001901                       # mshr miss rate for overall accesses
system.cpu.dcache.demand_avg_mshr_miss_latency::.switch_cpus.data 62593.195266                       # average overall mshr miss latency
system.cpu.dcache.demand_avg_mshr_miss_latency::.switch_cpus_1.data 76762.520050                       # average overall mshr miss latency
system.cpu.dcache.demand_avg_mshr_miss_latency::total 76670.314758                       # average overall mshr miss latency
system.cpu.dcache.overall_avg_mshr_miss_latency::.switch_cpus.data 62593.195266                       # average overall mshr miss latency
system.cpu.dcache.overall_avg_mshr_miss_latency::.switch_cpus_1.data 76762.520050                       # average overall mshr miss latency
system.cpu.dcache.overall_avg_mshr_miss_latency::total 76670.314758                       # average overall mshr miss latency
system.cpu.dcache.replacements                1505257                       # number of replacements
system.cpu.dcache.ReadReq_hits::.cpu.data    222565313                       # number of ReadReq hits
system.cpu.dcache.ReadReq_hits::.switch_cpus.data     11115150                       # number of ReadReq hits
system.cpu.dcache.ReadReq_hits::.switch_cpus_1.data    227493781                       # number of ReadReq hits
system.cpu.dcache.ReadReq_hits::total       461174244                       # number of ReadReq hits
system.cpu.dcache.ReadReq_misses::.cpu.data       103833                       # number of ReadReq misses
system.cpu.dcache.ReadReq_misses::.switch_cpus.data         4642                       # number of ReadReq misses
system.cpu.dcache.ReadReq_misses::.switch_cpus_1.data      6363626                       # number of ReadReq misses
system.cpu.dcache.ReadReq_misses::total       6472101                       # number of ReadReq misses
system.cpu.dcache.ReadReq_miss_latency::.switch_cpus.data    121599000                       # number of ReadReq miss cycles
system.cpu.dcache.ReadReq_miss_latency::.switch_cpus_1.data 449297364000                       # number of ReadReq miss cycles
system.cpu.dcache.ReadReq_miss_latency::total 449418963000                       # number of ReadReq miss cycles
system.cpu.dcache.ReadReq_accesses::.cpu.data    222669146                       # number of ReadReq accesses(hits+misses)
system.cpu.dcache.ReadReq_accesses::.switch_cpus.data     11119792                       # number of ReadReq accesses(hits+misses)
system.cpu.dcache.ReadReq_accesses::.switch_cpus_1.data    233857407                       # number of ReadReq accesses(hits+misses)
system.cpu.dcache.ReadReq_accesses::total    467646345                       # number of ReadReq accesses(hits+misses)
system.cpu.dcache.ReadReq_miss_rate::.cpu.data     0.000466                       # miss rate for ReadReq accesses
system.cpu.dcache.ReadReq_miss_rate::.switch_cpus.data     0.000417                       # miss rate for ReadReq accesses
system.cpu.dcache.ReadReq_miss_rate::.switch_cpus_1.data     0.027212                       # miss rate for ReadReq accesses
system.cpu.dcache.ReadReq_miss_rate::total     0.013840                       # miss rate for ReadReq accesses
system.cpu.dcache.ReadReq_avg_miss_latency::.switch_cpus.data 26195.389918                       # average ReadReq miss latency
system.cpu.dcache.ReadReq_avg_miss_latency::.switch_cpus_1.data 70603.986469                       # average ReadReq miss latency
system.cpu.dcache.ReadReq_avg_miss_latency::total 69439.423612                       # average ReadReq miss latency
system.cpu.dcache.ReadReq_mshr_hits::.switch_cpus_1.data      5297642                       # number of ReadReq MSHR hits
system.cpu.dcache.ReadReq_mshr_hits::total      5297642                       # number of ReadReq MSHR hits
system.cpu.dcache.ReadReq_mshr_misses::.switch_cpus.data         4642                       # number of ReadReq MSHR misses
system.cpu.dcache.ReadReq_mshr_misses::.switch_cpus_1.data      1065984                       # number of ReadReq MSHR misses
system.cpu.dcache.ReadReq_mshr_misses::total      1070626                       # number of ReadReq MSHR misses
system.cpu.dcache.ReadReq_mshr_miss_latency::.switch_cpus.data    116957000                       # number of ReadReq MSHR miss cycles
system.cpu.dcache.ReadReq_mshr_miss_latency::.switch_cpus_1.data  89794277000                       # number of ReadReq MSHR miss cycles
system.cpu.dcache.ReadReq_mshr_miss_latency::total  89911234000                       # number of ReadReq MSHR miss cycles
system.cpu.dcache.ReadReq_mshr_miss_rate::.switch_cpus.data     0.000417                       # mshr miss rate for ReadReq accesses
system.cpu.dcache.ReadReq_mshr_miss_rate::.switch_cpus_1.data     0.004558                       # mshr miss rate for ReadReq accesses
system.cpu.dcache.ReadReq_mshr_miss_rate::total     0.002289                       # mshr miss rate for ReadReq accesses
system.cpu.dcache.ReadReq_avg_mshr_miss_latency::.switch_cpus.data 25195.389918                       # average ReadReq mshr miss latency
system.cpu.dcache.ReadReq_avg_mshr_miss_latency::.switch_cpus_1.data 84236.045757                       # average ReadReq mshr miss latency
system.cpu.dcache.ReadReq_avg_mshr_miss_latency::total 83980.058396                       # average ReadReq mshr miss latency
system.cpu.dcache.WriteReq_hits::.cpu.data    175673761                       # number of WriteReq hits
system.cpu.dcache.WriteReq_hits::.switch_cpus.data      8811917                       # number of WriteReq hits
system.cpu.dcache.WriteReq_hits::.switch_cpus_1.data    112540221                       # number of WriteReq hits
system.cpu.dcache.WriteReq_hits::total      297025899                       # number of WriteReq hits
system.cpu.dcache.WriteReq_misses::.cpu.data       125468                       # number of WriteReq misses
system.cpu.dcache.WriteReq_misses::.switch_cpus.data         4822                       # number of WriteReq misses
system.cpu.dcache.WriteReq_misses::.switch_cpus_1.data       382215                       # number of WriteReq misses
system.cpu.dcache.WriteReq_misses::total       512505                       # number of WriteReq misses
system.cpu.dcache.WriteReq_miss_latency::.switch_cpus.data    480247000                       # number of WriteReq miss cycles
system.cpu.dcache.WriteReq_miss_latency::.switch_cpus_1.data  21500974258                       # number of WriteReq miss cycles
system.cpu.dcache.WriteReq_miss_latency::total  21981221258                       # number of WriteReq miss cycles
system.cpu.dcache.WriteReq_accesses::.cpu.data    175799229                       # number of WriteReq accesses(hits+misses)
system.cpu.dcache.WriteReq_accesses::.switch_cpus.data      8816739                       # number of WriteReq accesses(hits+misses)
system.cpu.dcache.WriteReq_accesses::.switch_cpus_1.data    112922436                       # number of WriteReq accesses(hits+misses)
system.cpu.dcache.WriteReq_accesses::total    297538404                       # number of WriteReq accesses(hits+misses)
system.cpu.dcache.WriteReq_miss_rate::.cpu.data     0.000714                       # miss rate for WriteReq accesses
system.cpu.dcache.WriteReq_miss_rate::.switch_cpus.data     0.000547                       # miss rate for WriteReq accesses
system.cpu.dcache.WriteReq_miss_rate::.switch_cpus_1.data     0.003385                       # miss rate for WriteReq accesses
system.cpu.dcache.WriteReq_miss_rate::total     0.001722                       # miss rate for WriteReq accesses
system.cpu.dcache.WriteReq_avg_miss_latency::.switch_cpus.data 99594.981336                       # average WriteReq miss latency
system.cpu.dcache.WriteReq_avg_miss_latency::.switch_cpus_1.data 56253.611862                       # average WriteReq miss latency
system.cpu.dcache.WriteReq_avg_miss_latency::total 42889.769384                       # average WriteReq miss latency
system.cpu.dcache.WriteReq_mshr_hits::.switch_cpus_1.data         3316                       # number of WriteReq MSHR hits
system.cpu.dcache.WriteReq_mshr_hits::total         3316                       # number of WriteReq MSHR hits
system.cpu.dcache.WriteReq_mshr_misses::.switch_cpus.data         4822                       # number of WriteReq MSHR misses
system.cpu.dcache.WriteReq_mshr_misses::.switch_cpus_1.data       378899                       # number of WriteReq MSHR misses
system.cpu.dcache.WriteReq_mshr_misses::total       383721                       # number of WriteReq MSHR misses
system.cpu.dcache.WriteReq_mshr_miss_latency::.switch_cpus.data    475425000                       # number of WriteReq MSHR miss cycles
system.cpu.dcache.WriteReq_mshr_miss_latency::.switch_cpus_1.data  21118583258                       # number of WriteReq MSHR miss cycles
system.cpu.dcache.WriteReq_mshr_miss_latency::total  21594008258                       # number of WriteReq MSHR miss cycles
system.cpu.dcache.WriteReq_mshr_miss_rate::.switch_cpus.data     0.000547                       # mshr miss rate for WriteReq accesses
system.cpu.dcache.WriteReq_mshr_miss_rate::.switch_cpus_1.data     0.003355                       # mshr miss rate for WriteReq accesses
system.cpu.dcache.WriteReq_mshr_miss_rate::total     0.001290                       # mshr miss rate for WriteReq accesses
system.cpu.dcache.WriteReq_avg_mshr_miss_latency::.switch_cpus.data 98594.981336                       # average WriteReq mshr miss latency
system.cpu.dcache.WriteReq_avg_mshr_miss_latency::.switch_cpus_1.data 55736.708880                       # average WriteReq mshr miss latency
system.cpu.dcache.WriteReq_avg_mshr_miss_latency::total 56275.284016                       # average WriteReq mshr miss latency
system.cpu.dcache.power_state.pwrStateResidencyTicks::UNDEFINED 1653560408500                       # Cumulative time (in ticks) in various power states
system.cpu.dcache.tags.tagsinuse           511.995472                       # Cycle average of tags in use
system.cpu.dcache.tags.total_refs           759899411                       # Total number of references to valid blocks.
system.cpu.dcache.tags.sampled_refs           1505769                       # Sample count of references to valid blocks.
system.cpu.dcache.tags.avg_refs            504.658690                       # Average number of references to valid blocks.
system.cpu.dcache.tags.warmup_cycle              1500                       # Cycle when the warmup percentage was hit.
system.cpu.dcache.tags.occ_blocks::.cpu.data   371.873346                       # Average occupied blocks per requestor
system.cpu.dcache.tags.occ_blocks::.switch_cpus.data    22.355647                       # Average occupied blocks per requestor
system.cpu.dcache.tags.occ_blocks::.switch_cpus_1.data   117.766480                       # Average occupied blocks per requestor
system.cpu.dcache.tags.occ_percent::.cpu.data     0.726315                       # Average percentage of cache occupancy
system.cpu.dcache.tags.occ_percent::.switch_cpus.data     0.043663                       # Average percentage of cache occupancy
system.cpu.dcache.tags.occ_percent::.switch_cpus_1.data     0.230013                       # Average percentage of cache occupancy
system.cpu.dcache.tags.occ_percent::total     0.999991                       # Average percentage of cache occupancy
system.cpu.dcache.tags.occ_task_id_blocks::1024          512                       # Occupied blocks per task id
system.cpu.dcache.tags.age_task_id_blocks_1024::0            1                       # Occupied blocks per task id
system.cpu.dcache.tags.age_task_id_blocks_1024::1           10                       # Occupied blocks per task id
system.cpu.dcache.tags.age_task_id_blocks_1024::2          100                       # Occupied blocks per task id
system.cpu.dcache.tags.age_task_id_blocks_1024::3          228                       # Occupied blocks per task id
system.cpu.dcache.tags.age_task_id_blocks_1024::4          173                       # Occupied blocks per task id
system.cpu.dcache.tags.occ_task_id_percent::1024            1                       # Percentage of cache occupancy per task id
system.cpu.dcache.tags.tag_accesses        3062244765                       # Number of tag accesses
system.cpu.dcache.tags.data_accesses       3062244765                       # Number of data accesses
system.cpu.dcache.tags.power_state.pwrStateResidencyTicks::UNDEFINED 1653560408500                       # Cumulative time (in ticks) in various power states
system.cpu.power_state.numTransitions               2                       # Number of power state transitions
system.cpu.power_state.pwrStateResidencyTicks::ON 1169538802000                       # Cumulative time (in ticks) in various power states
system.cpu.power_state.pwrStateResidencyTicks::OFF 484021606500                       # Cumulative time (in ticks) in various power states

---------- End Simulation Statistics   ----------
