
---------- Begin Simulation Statistics ----------
final_tick                               1475130433000                       # Number of ticks from beginning of simulation (restored from checkpoints and never reset)
host_inst_rate                                 256791                       # Simulator instruction rate (inst/s)
host_mem_usage                                4546340                       # Number of bytes of host memory used
host_op_rate                                   435188                       # Simulator op (including micro ops) rate (op/s)
host_seconds                                  5451.28                       # Real time elapsed on the host
host_tick_rate                               60918814                       # Simulator tick rate (ticks/s)
sim_freq                                 1000000000000                       # Frequency of simulated ticks
sim_insts                                  1399837585                       # Number of instructions simulated
sim_ops                                    2372328795                       # Number of ops (including micro ops) simulated
sim_seconds                                  0.332085                       # Number of seconds simulated
sim_ticks                                332085468250                       # Number of ticks simulated
system.cpu.committedInsts                           0                       # Number of instructions committed
system.cpu.committedOps                             0                       # Number of ops (including micro ops) committed
system.cpu.dtb.rdAccesses                           0                       # TLB accesses on read requests
system.cpu.dtb.rdMisses                             0                       # TLB misses on read requests
system.cpu.dtb.wrAccesses                           0                       # TLB accesses on write requests
system.cpu.dtb.wrMisses                             0                       # TLB misses on write requests
system.cpu.idle_fraction                            0                       # Percentage of idle cycles
system.cpu.itb.rdAccesses                           0                       # TLB accesses on read requests
system.cpu.itb.rdMisses                             0                       # TLB misses on read requests
system.cpu.itb.wrAccesses                           0                       # TLB accesses on write requests
system.cpu.itb.wrMisses                             0                       # TLB misses on write requests
system.cpu.not_idle_fraction                        1                       # Percentage of non-idle cycles
system.cpu.numCycles                                0                       # number of cpu cycles simulated
system.cpu.numWorkItemsCompleted                    0                       # number of work items this cpu completed
system.cpu.numWorkItemsStarted                      0                       # number of work items this cpu started
system.cpu.num_busy_cycles                          0                       # Number of busy cycles
system.cpu.num_conditional_control_insts            0                       # number of instructions that are conditional controls
system.cpu.num_fp_alu_accesses                      0                       # Number of float alu accesses
system.cpu.num_fp_insts                             0                       # number of float instructions
system.cpu.num_fp_register_reads                    0                       # number of times the floating registers were read
system.cpu.num_fp_register_writes                   0                       # number of times the floating registers were written
system.cpu.num_func_calls                           0                       # number of times a function call or return occured
system.cpu.num_idle_cycles                          0                       # Number of idle cycles
system.cpu.num_int_alu_accesses                     0                       # Number of integer alu accesses
system.cpu.num_int_insts                            0                       # number of integer instructions
system.cpu.num_int_register_reads                   0                       # number of times the integer registers were read
system.cpu.num_int_register_writes                  0                       # number of times the integer registers were written
system.cpu.num_load_insts                           0                       # Number of load instructions
system.cpu.num_mem_refs                             0                       # number of memory refs
system.cpu.num_store_insts                          0                       # Number of store instructions
system.cpu.num_vec_alu_accesses                     0                       # Number of vector alu accesses
system.cpu.num_vec_insts                            0                       # number of vector instructions
system.cpu.num_vec_register_reads                   0                       # number of times the vector registers were read
system.cpu.num_vec_register_writes                  0                       # number of times the vector registers were written
system.cpu.op_class::No_OpClass                     0                       # Class of executed instruction
system.cpu.op_class::IntAlu                         0                       # Class of executed instruction
system.cpu.op_class::IntMult                        0                       # Class of executed instruction
system.cpu.op_class::IntDiv                         0                       # Class of executed instruction
system.cpu.op_class::FloatAdd                       0                       # Class of executed instruction
system.cpu.op_class::FloatCmp                       0                       # Class of executed instruction
system.cpu.op_class::FloatCvt                       0                       # Class of executed instruction
system.cpu.op_class::FloatMult                      0                       # Class of executed instruction
system.cpu.op_class::FloatMultAcc                   0                       # Class of executed instruction
system.cpu.op_class::FloatDiv                       0                       # Class of executed instruction
system.cpu.op_class::FloatMisc                      0                       # Class of executed instruction
system.cpu.op_class::FloatSqrt                      0                       # Class of executed instruction
system.cpu.op_class::SimdAdd                        0                       # Class of executed instruction
system.cpu.op_class::SimdAddAcc                     0                       # Class of executed instruction
system.cpu.op_class::SimdAlu                        0                       # Class of executed instruction
system.cpu.op_class::SimdCmp                        0                       # Class of executed instruction
system.cpu.op_class::SimdCvt                        0                       # Class of executed instruction
system.cpu.op_class::SimdMisc                       0                       # Class of executed instruction
system.cpu.op_class::SimdMult                       0                       # Class of executed instruction
system.cpu.op_class::SimdMultAcc                    0                       # Class of executed instruction
system.cpu.op_class::SimdShift                      0                       # Class of executed instruction
system.cpu.op_class::SimdShiftAcc                   0                       # Class of executed instruction
system.cpu.op_class::SimdDiv                        0                       # Class of executed instruction
system.cpu.op_class::SimdSqrt                       0                       # Class of executed instruction
system.cpu.op_class::SimdFloatAdd                   0                       # Class of executed instruction
system.cpu.op_class::SimdFloatAlu                   0                       # Class of executed instruction
system.cpu.op_class::SimdFloatCmp                   0                       # Class of executed instruction
system.cpu.op_class::SimdFloatCvt                   0                       # Class of executed instruction
system.cpu.op_class::SimdFloatDiv                   0                       # Class of executed instruction
system.cpu.op_class::SimdFloatMisc                  0                       # Class of executed instruction
system.cpu.op_class::SimdFloatMult                  0                       # Class of executed instruction
system.cpu.op_class::SimdFloatMultAcc               0                       # Class of executed instruction
system.cpu.op_class::SimdFloatSqrt                  0                       # Class of executed instruction
system.cpu.op_class::SimdReduceAdd                  0                       # Class of executed instruction
system.cpu.op_class::SimdReduceAlu                  0                       # Class of executed instruction
system.cpu.op_class::SimdReduceCmp                  0                       # Class of executed instruction
system.cpu.op_class::SimdFloatReduceAdd             0                       # Class of executed instruction
system.cpu.op_class::SimdFloatReduceCmp             0                       # Class of executed instruction
system.cpu.op_class::SimdAes                        0                       # Class of executed instruction
system.cpu.op_class::SimdAesMix                     0                       # Class of executed instruction
system.cpu.op_class::SimdSha1Hash                   0                       # Class of executed instruction
system.cpu.op_class::SimdSha1Hash2                  0                       # Class of executed instruction
system.cpu.op_class::SimdSha256Hash                 0                       # Class of executed instruction
system.cpu.op_class::SimdSha256Hash2                0                       # Class of executed instruction
system.cpu.op_class::SimdShaSigma2                  0                       # Class of executed instruction
system.cpu.op_class::SimdShaSigma3                  0                       # Class of executed instruction
system.cpu.op_class::SimdPredAlu                    0                       # Class of executed instruction
system.cpu.op_class::MemRead                        0                       # Class of executed instruction
system.cpu.op_class::MemWrite                       0                       # Class of executed instruction
system.cpu.op_class::FloatMemRead                   0                       # Class of executed instruction
system.cpu.op_class::FloatMemWrite                  0                       # Class of executed instruction
system.cpu.op_class::IprAccess                      0                       # Class of executed instruction
system.cpu.op_class::InstPrefetch                   0                       # Class of executed instruction
system.cpu.op_class::total                          0                       # Class of executed instruction
system.cpu.workload.numSyscalls                     6                       # Number of system calls
system.membus.snoop_filter.hit_multi_requests            0                       # Number of requests hitting in the snoop filter with multiple (>1) holders of the requested data.
system.membus.snoop_filter.hit_multi_snoops            0                       # Number of snoops hitting in the snoop filter with multiple (>1) holders of the requested data.
system.membus.snoop_filter.hit_single_requests      1515367                       # Number of requests hitting in the snoop filter with a single holder of the requested data.
system.membus.snoop_filter.hit_single_snoops            0                       # Number of snoops hitting in the snoop filter with a single holder of the requested data.
system.membus.snoop_filter.tot_requests       3030364                       # Total number of requests made to the snoop filter.
system.membus.snoop_filter.tot_snoops               0                       # Total number of snoops made to the snoop filter.
system.switch_cpus.committedInsts                   0                       # Number of instructions committed
system.switch_cpus.committedOps                     0                       # Number of ops (including micro ops) committed
system.switch_cpus.dtb.rdAccesses                   0                       # TLB accesses on read requests
system.switch_cpus.dtb.rdMisses                     0                       # TLB misses on read requests
system.switch_cpus.dtb.wrAccesses                   0                       # TLB accesses on write requests
system.switch_cpus.dtb.wrMisses                     0                       # TLB misses on write requests
system.switch_cpus.idle_fraction                    0                       # Percentage of idle cycles
system.switch_cpus.itb.rdAccesses                   0                       # TLB accesses on read requests
system.switch_cpus.itb.rdMisses                     0                       # TLB misses on read requests
system.switch_cpus.itb.wrAccesses                   0                       # TLB accesses on write requests
system.switch_cpus.itb.wrMisses                     0                       # TLB misses on write requests
system.switch_cpus.not_idle_fraction                1                       # Percentage of non-idle cycles
system.switch_cpus.numCycles                        0                       # number of cpu cycles simulated
system.switch_cpus.numWorkItemsCompleted            0                       # number of work items this cpu completed
system.switch_cpus.numWorkItemsStarted              0                       # number of work items this cpu started
system.switch_cpus.num_busy_cycles                  0                       # Number of busy cycles
system.switch_cpus.num_conditional_control_insts            0                       # number of instructions that are conditional controls
system.switch_cpus.num_fp_alu_accesses              0                       # Number of float alu accesses
system.switch_cpus.num_fp_insts                     0                       # number of float instructions
system.switch_cpus.num_fp_register_reads            0                       # number of times the floating registers were read
system.switch_cpus.num_fp_register_writes            0                       # number of times the floating registers were written
system.switch_cpus.num_func_calls                   0                       # number of times a function call or return occured
system.switch_cpus.num_idle_cycles                  0                       # Number of idle cycles
system.switch_cpus.num_int_alu_accesses             0                       # Number of integer alu accesses
system.switch_cpus.num_int_insts                    0                       # number of integer instructions
system.switch_cpus.num_int_register_reads            0                       # number of times the integer registers were read
system.switch_cpus.num_int_register_writes            0                       # number of times the integer registers were written
system.switch_cpus.num_load_insts                   0                       # Number of load instructions
system.switch_cpus.num_mem_refs                     0                       # number of memory refs
system.switch_cpus.num_store_insts                  0                       # Number of store instructions
system.switch_cpus.num_vec_alu_accesses             0                       # Number of vector alu accesses
system.switch_cpus.num_vec_insts                    0                       # number of vector instructions
system.switch_cpus.num_vec_register_reads            0                       # number of times the vector registers were read
system.switch_cpus.num_vec_register_writes            0                       # number of times the vector registers were written
system.switch_cpus.op_class::No_OpClass             0                       # Class of executed instruction
system.switch_cpus.op_class::IntAlu                 0                       # Class of executed instruction
system.switch_cpus.op_class::IntMult                0                       # Class of executed instruction
system.switch_cpus.op_class::IntDiv                 0                       # Class of executed instruction
system.switch_cpus.op_class::FloatAdd               0                       # Class of executed instruction
system.switch_cpus.op_class::FloatCmp               0                       # Class of executed instruction
system.switch_cpus.op_class::FloatCvt               0                       # Class of executed instruction
system.switch_cpus.op_class::FloatMult              0                       # Class of executed instruction
system.switch_cpus.op_class::FloatMultAcc            0                       # Class of executed instruction
system.switch_cpus.op_class::FloatDiv               0                       # Class of executed instruction
system.switch_cpus.op_class::FloatMisc              0                       # Class of executed instruction
system.switch_cpus.op_class::FloatSqrt              0                       # Class of executed instruction
system.switch_cpus.op_class::SimdAdd                0                       # Class of executed instruction
system.switch_cpus.op_class::SimdAddAcc             0                       # Class of executed instruction
system.switch_cpus.op_class::SimdAlu                0                       # Class of executed instruction
system.switch_cpus.op_class::SimdCmp                0                       # Class of executed instruction
system.switch_cpus.op_class::SimdCvt                0                       # Class of executed instruction
system.switch_cpus.op_class::SimdMisc               0                       # Class of executed instruction
system.switch_cpus.op_class::SimdMult               0                       # Class of executed instruction
system.switch_cpus.op_class::SimdMultAcc            0                       # Class of executed instruction
system.switch_cpus.op_class::SimdShift              0                       # Class of executed instruction
system.switch_cpus.op_class::SimdShiftAcc            0                       # Class of executed instruction
system.switch_cpus.op_class::SimdDiv                0                       # Class of executed instruction
system.switch_cpus.op_class::SimdSqrt               0                       # Class of executed instruction
system.switch_cpus.op_class::SimdFloatAdd            0                       # Class of executed instruction
system.switch_cpus.op_class::SimdFloatAlu            0                       # Class of executed instruction
system.switch_cpus.op_class::SimdFloatCmp            0                       # Class of executed instruction
system.switch_cpus.op_class::SimdFloatCvt            0                       # Class of executed instruction
system.switch_cpus.op_class::SimdFloatDiv            0                       # Class of executed instruction
system.switch_cpus.op_class::SimdFloatMisc            0                       # Class of executed instruction
system.switch_cpus.op_class::SimdFloatMult            0                       # Class of executed instruction
system.switch_cpus.op_class::SimdFloatMultAcc            0                       # Class of executed instruction
system.switch_cpus.op_class::SimdFloatSqrt            0                       # Class of executed instruction
system.switch_cpus.op_class::SimdReduceAdd            0                       # Class of executed instruction
system.switch_cpus.op_class::SimdReduceAlu            0                       # Class of executed instruction
system.switch_cpus.op_class::SimdReduceCmp            0                       # Class of executed instruction
system.switch_cpus.op_class::SimdFloatReduceAdd            0                       # Class of executed instruction
system.switch_cpus.op_class::SimdFloatReduceCmp            0                       # Class of executed instruction
system.switch_cpus.op_class::SimdAes                0                       # Class of executed instruction
system.switch_cpus.op_class::SimdAesMix             0                       # Class of executed instruction
system.switch_cpus.op_class::SimdSha1Hash            0                       # Class of executed instruction
system.switch_cpus.op_class::SimdSha1Hash2            0                       # Class of executed instruction
system.switch_cpus.op_class::SimdSha256Hash            0                       # Class of executed instruction
system.switch_cpus.op_class::SimdSha256Hash2            0                       # Class of executed instruction
system.switch_cpus.op_class::SimdShaSigma2            0                       # Class of executed instruction
system.switch_cpus.op_class::SimdShaSigma3            0                       # Class of executed instruction
system.switch_cpus.op_class::SimdPredAlu            0                       # Class of executed instruction
system.switch_cpus.op_class::MemRead                0                       # Class of executed instruction
system.switch_cpus.op_class::MemWrite               0                       # Class of executed instruction
system.switch_cpus.op_class::FloatMemRead            0                       # Class of executed instruction
system.switch_cpus.op_class::FloatMemWrite            0                       # Class of executed instruction
system.switch_cpus.op_class::IprAccess              0                       # Class of executed instruction
system.switch_cpus.op_class::InstPrefetch            0                       # Class of executed instruction
system.switch_cpus.op_class::total                  0                       # Class of executed instruction
system.switch_cpus_1.branchPred.BTBCorrect            0                       # Number of correct BTB predictions (this stat may not work properly.
system.switch_cpus_1.branchPred.BTBHitPct          nan                       # BTB Hit Percentage
system.switch_cpus_1.branchPred.BTBHits             0                       # Number of BTB hits
system.switch_cpus_1.branchPred.BTBLookups            0                       # Number of BTB lookups
system.switch_cpus_1.branchPred.RASInCorrect           42                       # Number of incorrect RAS predictions.
system.switch_cpus_1.branchPred.condIncorrect     10999059                       # Number of conditional branches incorrect
system.switch_cpus_1.branchPred.condPredicted    117489652                       # Number of conditional branches predicted
system.switch_cpus_1.branchPred.indirectHits     38393329                       # Number of indirect target hits.
system.switch_cpus_1.branchPred.indirectLookups     65248414                       # Number of indirect predictor lookups.
system.switch_cpus_1.branchPred.indirectMisses     26855085                       # Number of indirect misses.
system.switch_cpus_1.branchPred.lookups     124978518                       # Number of BP lookups
system.switch_cpus_1.branchPred.usedRAS       2644518                       # Number of times the RAS was used to get a target.
system.switch_cpus_1.branchPredindirectMispredicted      6143953                       # Number of mispredicted indirect branches.
system.switch_cpus_1.cc_regfile_reads       361611679                       # number of cc regfile reads
system.switch_cpus_1.cc_regfile_writes      314176458                       # number of cc regfile writes
system.switch_cpus_1.commit.amos                    0                       # Number of atomic instructions committed
system.switch_cpus_1.commit.branchMispredicts     10999664                       # The number of times a branch was mispredicted
system.switch_cpus_1.commit.branches         57167651                       # Number of branches committed
system.switch_cpus_1.commit.bw_lim_events     34416402                       # number cycles where commit BW limit reached
system.switch_cpus_1.commit.commitNonSpecStalls            6                       # The number of times commit has been forced to stall to communicate backwards
system.switch_cpus_1.commit.commitSquashedInsts    424325134                       # The number of squashed insts skipped by commit
system.switch_cpus_1.commit.committedInsts    349837583                       # Number of instructions committed
system.switch_cpus_1.commit.committedOps    591390416                       # Number of ops (including micro ops) committed
system.switch_cpus_1.commit.committed_per_cycle::samples    601337741                       # Number of insts commited each cycle
system.switch_cpus_1.commit.committed_per_cycle::mean     0.983458                       # Number of insts commited each cycle
system.switch_cpus_1.commit.committed_per_cycle::stdev     2.098439                       # Number of insts commited each cycle
system.switch_cpus_1.commit.committed_per_cycle::underflows            0      0.00%      0.00% # Number of insts commited each cycle
system.switch_cpus_1.commit.committed_per_cycle::0    423524948     70.43%     70.43% # Number of insts commited each cycle
system.switch_cpus_1.commit.committed_per_cycle::1     69353999     11.53%     81.96% # Number of insts commited each cycle
system.switch_cpus_1.commit.committed_per_cycle::2     22676351      3.77%     85.73% # Number of insts commited each cycle
system.switch_cpus_1.commit.committed_per_cycle::3     26416102      4.39%     90.13% # Number of insts commited each cycle
system.switch_cpus_1.commit.committed_per_cycle::4     13448346      2.24%     92.36% # Number of insts commited each cycle
system.switch_cpus_1.commit.committed_per_cycle::5      4482622      0.75%     93.11% # Number of insts commited each cycle
system.switch_cpus_1.commit.committed_per_cycle::6      3235098      0.54%     93.65% # Number of insts commited each cycle
system.switch_cpus_1.commit.committed_per_cycle::7      3783873      0.63%     94.28% # Number of insts commited each cycle
system.switch_cpus_1.commit.committed_per_cycle::8     34416402      5.72%    100.00% # Number of insts commited each cycle
system.switch_cpus_1.commit.committed_per_cycle::overflows            0      0.00%    100.00% # Number of insts commited each cycle
system.switch_cpus_1.commit.committed_per_cycle::min_value            0                       # Number of insts commited each cycle
system.switch_cpus_1.commit.committed_per_cycle::max_value            8                       # Number of insts commited each cycle
system.switch_cpus_1.commit.committed_per_cycle::total    601337741                       # Number of insts commited each cycle
system.switch_cpus_1.commit.fp_insts           157352                       # Number of committed floating point instructions.
system.switch_cpus_1.commit.function_calls      1587937                       # Number of function calls committed.
system.switch_cpus_1.commit.int_insts       590654157                       # Number of committed integer instructions.
system.switch_cpus_1.commit.loads           104027389                       # Number of loads committed
system.switch_cpus_1.commit.membars                 0                       # Number of memory barriers committed
system.switch_cpus_1.commit.op_class_0::No_OpClass       735700      0.12%      0.12% # Class of committed instruction
system.switch_cpus_1.commit.op_class_0::IntAlu    451836507     76.40%     76.53% # Class of committed instruction
system.switch_cpus_1.commit.op_class_0::IntMult          343      0.00%     76.53% # Class of committed instruction
system.switch_cpus_1.commit.op_class_0::IntDiv          153      0.00%     76.53% # Class of committed instruction
system.switch_cpus_1.commit.op_class_0::FloatAdd            8      0.00%     76.53% # Class of committed instruction
system.switch_cpus_1.commit.op_class_0::FloatCmp            0      0.00%     76.53% # Class of committed instruction
system.switch_cpus_1.commit.op_class_0::FloatCvt            0      0.00%     76.53% # Class of committed instruction
system.switch_cpus_1.commit.op_class_0::FloatMult            0      0.00%     76.53% # Class of committed instruction
system.switch_cpus_1.commit.op_class_0::FloatMultAcc            0      0.00%     76.53% # Class of committed instruction
system.switch_cpus_1.commit.op_class_0::FloatDiv            0      0.00%     76.53% # Class of committed instruction
system.switch_cpus_1.commit.op_class_0::FloatMisc            0      0.00%     76.53% # Class of committed instruction
system.switch_cpus_1.commit.op_class_0::FloatSqrt            0      0.00%     76.53% # Class of committed instruction
system.switch_cpus_1.commit.op_class_0::SimdAdd            0      0.00%     76.53% # Class of committed instruction
system.switch_cpus_1.commit.op_class_0::SimdAddAcc            0      0.00%     76.53% # Class of committed instruction
system.switch_cpus_1.commit.op_class_0::SimdAlu           32      0.00%     76.53% # Class of committed instruction
system.switch_cpus_1.commit.op_class_0::SimdCmp            0      0.00%     76.53% # Class of committed instruction
system.switch_cpus_1.commit.op_class_0::SimdCvt           56      0.00%     76.53% # Class of committed instruction
system.switch_cpus_1.commit.op_class_0::SimdMisc          112      0.00%     76.53% # Class of committed instruction
system.switch_cpus_1.commit.op_class_0::SimdMult            0      0.00%     76.53% # Class of committed instruction
system.switch_cpus_1.commit.op_class_0::SimdMultAcc            0      0.00%     76.53% # Class of committed instruction
system.switch_cpus_1.commit.op_class_0::SimdShift            0      0.00%     76.53% # Class of committed instruction
system.switch_cpus_1.commit.op_class_0::SimdShiftAcc            0      0.00%     76.53% # Class of committed instruction
system.switch_cpus_1.commit.op_class_0::SimdDiv            0      0.00%     76.53% # Class of committed instruction
system.switch_cpus_1.commit.op_class_0::SimdSqrt            0      0.00%     76.53% # Class of committed instruction
system.switch_cpus_1.commit.op_class_0::SimdFloatAdd            0      0.00%     76.53% # Class of committed instruction
system.switch_cpus_1.commit.op_class_0::SimdFloatAlu            0      0.00%     76.53% # Class of committed instruction
system.switch_cpus_1.commit.op_class_0::SimdFloatCmp            0      0.00%     76.53% # Class of committed instruction
system.switch_cpus_1.commit.op_class_0::SimdFloatCvt            0      0.00%     76.53% # Class of committed instruction
system.switch_cpus_1.commit.op_class_0::SimdFloatDiv            0      0.00%     76.53% # Class of committed instruction
system.switch_cpus_1.commit.op_class_0::SimdFloatMisc            0      0.00%     76.53% # Class of committed instruction
system.switch_cpus_1.commit.op_class_0::SimdFloatMult            0      0.00%     76.53% # Class of committed instruction
system.switch_cpus_1.commit.op_class_0::SimdFloatMultAcc            0      0.00%     76.53% # Class of committed instruction
system.switch_cpus_1.commit.op_class_0::SimdFloatSqrt            0      0.00%     76.53% # Class of committed instruction
system.switch_cpus_1.commit.op_class_0::SimdReduceAdd            0      0.00%     76.53% # Class of committed instruction
system.switch_cpus_1.commit.op_class_0::SimdReduceAlu            0      0.00%     76.53% # Class of committed instruction
system.switch_cpus_1.commit.op_class_0::SimdReduceCmp            0      0.00%     76.53% # Class of committed instruction
system.switch_cpus_1.commit.op_class_0::SimdFloatReduceAdd            0      0.00%     76.53% # Class of committed instruction
system.switch_cpus_1.commit.op_class_0::SimdFloatReduceCmp            0      0.00%     76.53% # Class of committed instruction
system.switch_cpus_1.commit.op_class_0::SimdAes            0      0.00%     76.53% # Class of committed instruction
system.switch_cpus_1.commit.op_class_0::SimdAesMix            0      0.00%     76.53% # Class of committed instruction
system.switch_cpus_1.commit.op_class_0::SimdSha1Hash            0      0.00%     76.53% # Class of committed instruction
system.switch_cpus_1.commit.op_class_0::SimdSha1Hash2            0      0.00%     76.53% # Class of committed instruction
system.switch_cpus_1.commit.op_class_0::SimdSha256Hash            0      0.00%     76.53% # Class of committed instruction
system.switch_cpus_1.commit.op_class_0::SimdSha256Hash2            0      0.00%     76.53% # Class of committed instruction
system.switch_cpus_1.commit.op_class_0::SimdShaSigma2            0      0.00%     76.53% # Class of committed instruction
system.switch_cpus_1.commit.op_class_0::SimdShaSigma3            0      0.00%     76.53% # Class of committed instruction
system.switch_cpus_1.commit.op_class_0::SimdPredAlu            0      0.00%     76.53% # Class of committed instruction
system.switch_cpus_1.commit.op_class_0::MemRead    104027355     17.59%     94.12% # Class of committed instruction
system.switch_cpus_1.commit.op_class_0::MemWrite     34633036      5.86%     99.97% # Class of committed instruction
system.switch_cpus_1.commit.op_class_0::FloatMemRead           34      0.00%     99.97% # Class of committed instruction
system.switch_cpus_1.commit.op_class_0::FloatMemWrite       157080      0.03%    100.00% # Class of committed instruction
system.switch_cpus_1.commit.op_class_0::IprAccess            0      0.00%    100.00% # Class of committed instruction
system.switch_cpus_1.commit.op_class_0::InstPrefetch            0      0.00%    100.00% # Class of committed instruction
system.switch_cpus_1.commit.op_class_0::total    591390416                       # Class of committed instruction
system.switch_cpus_1.commit.refs            138817505                       # Number of memory references committed
system.switch_cpus_1.commit.swp_count               0                       # Number of s/w prefetches committed
system.switch_cpus_1.commit.vec_insts               0                       # Number of committed Vector instructions.
system.switch_cpus_1.committedInsts         349837583                       # Number of Instructions Simulated
system.switch_cpus_1.committedOps           591390416                       # Number of Ops (including micro ops) Simulated
system.switch_cpus_1.cpi                     1.898512                       # CPI: Cycles Per Instruction
system.switch_cpus_1.cpi_total               1.898512                       # CPI: Total CPI of All Threads
system.switch_cpus_1.decode.BlockedCycles    420426719                       # Number of cycles decode is blocked
system.switch_cpus_1.decode.DecodedInsts   1178561153                       # Number of instructions handled by decode
system.switch_cpus_1.decode.IdleCycles       67010188                       # Number of cycles decode is idle
system.switch_cpus_1.decode.RunCycles       135050019                       # Number of cycles decode is running
system.switch_cpus_1.decode.SquashCycles     11031611                       # Number of cycles decode is squashing
system.switch_cpus_1.decode.UnblockCycles     30606341                       # Number of cycles decode is unblocking
system.switch_cpus_1.dtb.rdAccesses         147513939                       # TLB accesses on read requests
system.switch_cpus_1.dtb.rdMisses             1981876                       # TLB misses on read requests
system.switch_cpus_1.dtb.wrAccesses          44995956                       # TLB accesses on write requests
system.switch_cpus_1.dtb.wrMisses              517090                       # TLB misses on write requests
system.switch_cpus_1.fetch.Branches         124978518                       # Number of branches that fetch encountered
system.switch_cpus_1.fetch.CacheLines        83229669                       # Number of cache lines fetched
system.switch_cpus_1.fetch.Cycles           562780232                       # Number of cycles fetch has run and was not squashing or blocked
system.switch_cpus_1.fetch.IcacheSquashes      2533117                       # Number of outstanding Icache misses that were squashed
system.switch_cpus_1.fetch.IcacheWaitRetryStallCycles           48                       # Number of stall cycles due to full MSHR
system.switch_cpus_1.fetch.Insts            770870662                       # Number of instructions fetch has processed
system.switch_cpus_1.fetch.MiscStallCycles          622                       # Number of cycles fetch has spent waiting on interrupts, or bad addresses, or out of MSHRs
system.switch_cpus_1.fetch.PendingQuiesceStallCycles            6                       # Number of stall cycles due to pending quiesce instructions
system.switch_cpus_1.fetch.PendingTrapStallCycles         8520                       # Number of stall cycles due to pending traps
system.switch_cpus_1.fetch.SquashCycles      22063222                       # Number of cycles fetch has spent squashing
system.switch_cpus_1.fetch.TlbCycles                2                       # Number of cycles fetch has spent waiting for tlb
system.switch_cpus_1.fetch.branchRate        0.188172                       # Number of branch fetches per cycle
system.switch_cpus_1.fetch.icacheStallCycles     90303848                       # Number of cycles fetch is stalled on an Icache miss
system.switch_cpus_1.fetch.predictedBranches     41037847                       # Number of branches that fetch has predicted taken
system.switch_cpus_1.fetch.rate              1.160651                       # Number of inst fetches per cycle
system.switch_cpus_1.fetch.rateDist::samples    664124889                       # Number of instructions fetched each cycle (Total)
system.switch_cpus_1.fetch.rateDist::mean     1.930501                       # Number of instructions fetched each cycle (Total)
system.switch_cpus_1.fetch.rateDist::stdev     3.178569                       # Number of instructions fetched each cycle (Total)
system.switch_cpus_1.fetch.rateDist::underflows            0      0.00%      0.00% # Number of instructions fetched each cycle (Total)
system.switch_cpus_1.fetch.rateDist::0      458999753     69.11%     69.11% # Number of instructions fetched each cycle (Total)
system.switch_cpus_1.fetch.rateDist::1       11945069      1.80%     70.91% # Number of instructions fetched each cycle (Total)
system.switch_cpus_1.fetch.rateDist::2       15136993      2.28%     73.19% # Number of instructions fetched each cycle (Total)
system.switch_cpus_1.fetch.rateDist::3       11639678      1.75%     74.94% # Number of instructions fetched each cycle (Total)
system.switch_cpus_1.fetch.rateDist::4       10090908      1.52%     76.46% # Number of instructions fetched each cycle (Total)
system.switch_cpus_1.fetch.rateDist::5       18209922      2.74%     79.21% # Number of instructions fetched each cycle (Total)
system.switch_cpus_1.fetch.rateDist::6       10793854      1.63%     80.83% # Number of instructions fetched each cycle (Total)
system.switch_cpus_1.fetch.rateDist::7        9690130      1.46%     82.29% # Number of instructions fetched each cycle (Total)
system.switch_cpus_1.fetch.rateDist::8      117618582     17.71%    100.00% # Number of instructions fetched each cycle (Total)
system.switch_cpus_1.fetch.rateDist::overflows            0      0.00%    100.00% # Number of instructions fetched each cycle (Total)
system.switch_cpus_1.fetch.rateDist::min_value            0                       # Number of instructions fetched each cycle (Total)
system.switch_cpus_1.fetch.rateDist::max_value            8                       # Number of instructions fetched each cycle (Total)
system.switch_cpus_1.fetch.rateDist::total    664124889                       # Number of instructions fetched each cycle (Total)
system.switch_cpus_1.fp_regfile_reads          280307                       # number of floating regfile reads
system.switch_cpus_1.fp_regfile_writes          78864                       # number of floating regfile writes
system.switch_cpus_1.idleCycles                 46047                       # Total number of cycles that the CPU has spent unscheduled due to idling
system.switch_cpus_1.iew.branchMispredicts     13219545                       # Number of branch mispredicts detected at execute
system.switch_cpus_1.iew.exec_branches       73904982                       # Number of branches executed
system.switch_cpus_1.iew.exec_nop                   0                       # number of nop insts executed
system.switch_cpus_1.iew.exec_rate           1.273679                       # Inst execution rate
system.switch_cpus_1.iew.exec_refs          195701731                       # number of memory reference insts executed
system.switch_cpus_1.iew.exec_stores         44989622                       # Number of stores executed
system.switch_cpus_1.iew.exec_swp                   0                       # number of swp insts executed
system.switch_cpus_1.iew.iewBlockCycles     160628859                       # Number of cycles IEW is blocking
system.switch_cpus_1.iew.iewDispLoadInsts    182024102                       # Number of dispatched load instructions
system.switch_cpus_1.iew.iewDispNonSpecInsts           78                       # Number of dispatched non-speculative instructions
system.switch_cpus_1.iew.iewDispSquashedInsts       953996                       # Number of squashed instructions skipped by dispatch
system.switch_cpus_1.iew.iewDispStoreInsts     65223423                       # Number of dispatched store instructions
system.switch_cpus_1.iew.iewDispatchedInsts   1015600757                       # Number of instructions dispatched to IQ
system.switch_cpus_1.iew.iewExecLoadInsts    150712109                       # Number of load instructions executed
system.switch_cpus_1.iew.iewExecSquashedInsts     27037103                       # Number of squashed instructions skipped in execute
system.switch_cpus_1.iew.iewExecutedInsts    845940570                       # Number of executed instructions
system.switch_cpus_1.iew.iewIQFullEvents      1180365                       # Number of times the IQ has become full, causing a stall
system.switch_cpus_1.iew.iewIdleCycles              0                       # Number of cycles IEW is idle
system.switch_cpus_1.iew.iewLSQFullEvents     45657463                       # Number of times the LSQ has become full, causing a stall
system.switch_cpus_1.iew.iewSquashCycles     11031611                       # Number of cycles IEW is squashing
system.switch_cpus_1.iew.iewUnblockCycles     47818166                       # Number of cycles IEW is unblocking
system.switch_cpus_1.iew.lsq.thread0.blockedLoads            0                       # Number of blocked loads due to partial load-store forwarding
system.switch_cpus_1.iew.lsq.thread0.cacheBlocked      1018571                       # Number of times an access to memory failed due to the cache being blocked
system.switch_cpus_1.iew.lsq.thread0.forwLoads     14045117                       # Number of loads that had data forwarded from stores
system.switch_cpus_1.iew.lsq.thread0.ignoredResponses        71394                       # Number of memory responses ignored because the instruction is squashed
system.switch_cpus_1.iew.lsq.thread0.invAddrLoads            0                       # Number of loads ignored due to an invalid address
system.switch_cpus_1.iew.lsq.thread0.invAddrSwpfs            0                       # Number of software prefetches ignored due to an invalid address
system.switch_cpus_1.iew.lsq.thread0.memOrderViolation        40412                       # Number of memory ordering violations
system.switch_cpus_1.iew.lsq.thread0.rescheduledLoads        53847                       # Number of loads that were rescheduled
system.switch_cpus_1.iew.lsq.thread0.squashedLoads     77996713                       # Number of loads squashed
system.switch_cpus_1.iew.lsq.thread0.squashedStores     30433307                       # Number of stores squashed
system.switch_cpus_1.iew.memOrderViolationEvents        40412                       # Number of memory order violations
system.switch_cpus_1.iew.predictedNotTakenIncorrect     11898884                       # Number of branches that were predicted not taken incorrectly
system.switch_cpus_1.iew.predictedTakenIncorrect      1320661                       # Number of branches that were predicted taken incorrectly
system.switch_cpus_1.iew.wb_consumers       955838539                       # num instructions consuming a value
system.switch_cpus_1.iew.wb_count           825766661                       # cumulative count of insts written-back
system.switch_cpus_1.iew.wb_fanout           0.664334                       # average fanout of values written-back
system.switch_cpus_1.iew.wb_producers       634996151                       # num instructions producing a value
system.switch_cpus_1.iew.wb_rate             1.243304                       # insts written-back per cycle
system.switch_cpus_1.iew.wb_sent            831557019                       # cumulative count of insts sent to commit
system.switch_cpus_1.int_regfile_reads     1294016161                       # number of integer regfile reads
system.switch_cpus_1.int_regfile_writes     709171972                       # number of integer regfile writes
system.switch_cpus_1.ipc                     0.526728                       # IPC: Instructions Per Cycle
system.switch_cpus_1.ipc_total               0.526728                       # IPC: Total IPC of All Threads
system.switch_cpus_1.iq.FU_type_0::No_OpClass      3055585      0.35%      0.35% # Type of FU issued
system.switch_cpus_1.iq.FU_type_0::IntAlu    664179790     76.08%     76.43% # Type of FU issued
system.switch_cpus_1.iq.FU_type_0::IntMult          367      0.00%     76.43% # Type of FU issued
system.switch_cpus_1.iq.FU_type_0::IntDiv          158      0.00%     76.43% # Type of FU issued
system.switch_cpus_1.iq.FU_type_0::FloatAdd           11      0.00%     76.43% # Type of FU issued
system.switch_cpus_1.iq.FU_type_0::FloatCmp            0      0.00%     76.43% # Type of FU issued
system.switch_cpus_1.iq.FU_type_0::FloatCvt         6720      0.00%     76.43% # Type of FU issued
system.switch_cpus_1.iq.FU_type_0::FloatMult            0      0.00%     76.43% # Type of FU issued
system.switch_cpus_1.iq.FU_type_0::FloatMultAcc            0      0.00%     76.43% # Type of FU issued
system.switch_cpus_1.iq.FU_type_0::FloatDiv            0      0.00%     76.43% # Type of FU issued
system.switch_cpus_1.iq.FU_type_0::FloatMisc            0      0.00%     76.43% # Type of FU issued
system.switch_cpus_1.iq.FU_type_0::FloatSqrt            0      0.00%     76.43% # Type of FU issued
system.switch_cpus_1.iq.FU_type_0::SimdAdd            0      0.00%     76.43% # Type of FU issued
system.switch_cpus_1.iq.FU_type_0::SimdAddAcc            0      0.00%     76.43% # Type of FU issued
system.switch_cpus_1.iq.FU_type_0::SimdAlu           38      0.00%     76.43% # Type of FU issued
system.switch_cpus_1.iq.FU_type_0::SimdCmp            0      0.00%     76.43% # Type of FU issued
system.switch_cpus_1.iq.FU_type_0::SimdCvt           66      0.00%     76.43% # Type of FU issued
system.switch_cpus_1.iq.FU_type_0::SimdMisc       104876      0.01%     76.44% # Type of FU issued
system.switch_cpus_1.iq.FU_type_0::SimdMult            0      0.00%     76.44% # Type of FU issued
system.switch_cpus_1.iq.FU_type_0::SimdMultAcc            0      0.00%     76.44% # Type of FU issued
system.switch_cpus_1.iq.FU_type_0::SimdShift            0      0.00%     76.44% # Type of FU issued
system.switch_cpus_1.iq.FU_type_0::SimdShiftAcc            0      0.00%     76.44% # Type of FU issued
system.switch_cpus_1.iq.FU_type_0::SimdDiv            0      0.00%     76.44% # Type of FU issued
system.switch_cpus_1.iq.FU_type_0::SimdSqrt            0      0.00%     76.44% # Type of FU issued
system.switch_cpus_1.iq.FU_type_0::SimdFloatAdd            0      0.00%     76.44% # Type of FU issued
system.switch_cpus_1.iq.FU_type_0::SimdFloatAlu            0      0.00%     76.44% # Type of FU issued
system.switch_cpus_1.iq.FU_type_0::SimdFloatCmp            0      0.00%     76.44% # Type of FU issued
system.switch_cpus_1.iq.FU_type_0::SimdFloatCvt        40022      0.00%     76.45% # Type of FU issued
system.switch_cpus_1.iq.FU_type_0::SimdFloatDiv            0      0.00%     76.45% # Type of FU issued
system.switch_cpus_1.iq.FU_type_0::SimdFloatMisc            0      0.00%     76.45% # Type of FU issued
system.switch_cpus_1.iq.FU_type_0::SimdFloatMult            0      0.00%     76.45% # Type of FU issued
system.switch_cpus_1.iq.FU_type_0::SimdFloatMultAcc            0      0.00%     76.45% # Type of FU issued
system.switch_cpus_1.iq.FU_type_0::SimdFloatSqrt            0      0.00%     76.45% # Type of FU issued
system.switch_cpus_1.iq.FU_type_0::SimdReduceAdd            0      0.00%     76.45% # Type of FU issued
system.switch_cpus_1.iq.FU_type_0::SimdReduceAlu            0      0.00%     76.45% # Type of FU issued
system.switch_cpus_1.iq.FU_type_0::SimdReduceCmp            0      0.00%     76.45% # Type of FU issued
system.switch_cpus_1.iq.FU_type_0::SimdFloatReduceAdd            0      0.00%     76.45% # Type of FU issued
system.switch_cpus_1.iq.FU_type_0::SimdFloatReduceCmp            0      0.00%     76.45% # Type of FU issued
system.switch_cpus_1.iq.FU_type_0::SimdAes            0      0.00%     76.45% # Type of FU issued
system.switch_cpus_1.iq.FU_type_0::SimdAesMix            0      0.00%     76.45% # Type of FU issued
system.switch_cpus_1.iq.FU_type_0::SimdSha1Hash            0      0.00%     76.45% # Type of FU issued
system.switch_cpus_1.iq.FU_type_0::SimdSha1Hash2            0      0.00%     76.45% # Type of FU issued
system.switch_cpus_1.iq.FU_type_0::SimdSha256Hash            0      0.00%     76.45% # Type of FU issued
system.switch_cpus_1.iq.FU_type_0::SimdSha256Hash2            0      0.00%     76.45% # Type of FU issued
system.switch_cpus_1.iq.FU_type_0::SimdShaSigma2            0      0.00%     76.45% # Type of FU issued
system.switch_cpus_1.iq.FU_type_0::SimdShaSigma3            0      0.00%     76.45% # Type of FU issued
system.switch_cpus_1.iq.FU_type_0::SimdPredAlu            0      0.00%     76.45% # Type of FU issued
system.switch_cpus_1.iq.FU_type_0::MemRead    158164470     18.12%     94.57% # Type of FU issued
system.switch_cpus_1.iq.FU_type_0::MemWrite     47268137      5.41%     99.98% # Type of FU issued
system.switch_cpus_1.iq.FU_type_0::FloatMemRead           69      0.00%     99.98% # Type of FU issued
system.switch_cpus_1.iq.FU_type_0::FloatMemWrite       157364      0.02%    100.00% # Type of FU issued
system.switch_cpus_1.iq.FU_type_0::IprAccess            0      0.00%    100.00% # Type of FU issued
system.switch_cpus_1.iq.FU_type_0::InstPrefetch            0      0.00%    100.00% # Type of FU issued
system.switch_cpus_1.iq.FU_type_0::total    872977673                       # Type of FU issued
system.switch_cpus_1.iq.fp_alu_accesses        309292                       # Number of floating point alu accesses
system.switch_cpus_1.iq.fp_inst_queue_reads       622150                       # Number of floating instruction queue reads
system.switch_cpus_1.iq.fp_inst_queue_wakeup_accesses       242512                       # Number of floating instruction queue wakeup accesses
system.switch_cpus_1.iq.fp_inst_queue_writes       961760                       # Number of floating instruction queue writes
system.switch_cpus_1.iq.fu_busy_cnt           9475751                       # FU busy when requested
system.switch_cpus_1.iq.fu_busy_rate         0.010855                       # FU busy rate (busy events/executed inst)
system.switch_cpus_1.iq.fu_full::No_OpClass            0      0.00%      0.00% # attempts to use FU when none available
system.switch_cpus_1.iq.fu_full::IntAlu       7443881     78.56%     78.56% # attempts to use FU when none available
system.switch_cpus_1.iq.fu_full::IntMult            0      0.00%     78.56% # attempts to use FU when none available
system.switch_cpus_1.iq.fu_full::IntDiv             0      0.00%     78.56% # attempts to use FU when none available
system.switch_cpus_1.iq.fu_full::FloatAdd            0      0.00%     78.56% # attempts to use FU when none available
system.switch_cpus_1.iq.fu_full::FloatCmp            0      0.00%     78.56% # attempts to use FU when none available
system.switch_cpus_1.iq.fu_full::FloatCvt            3      0.00%     78.56% # attempts to use FU when none available
system.switch_cpus_1.iq.fu_full::FloatMult            0      0.00%     78.56% # attempts to use FU when none available
system.switch_cpus_1.iq.fu_full::FloatMultAcc            0      0.00%     78.56% # attempts to use FU when none available
system.switch_cpus_1.iq.fu_full::FloatDiv            0      0.00%     78.56% # attempts to use FU when none available
system.switch_cpus_1.iq.fu_full::FloatMisc            0      0.00%     78.56% # attempts to use FU when none available
system.switch_cpus_1.iq.fu_full::FloatSqrt            0      0.00%     78.56% # attempts to use FU when none available
system.switch_cpus_1.iq.fu_full::SimdAdd            0      0.00%     78.56% # attempts to use FU when none available
system.switch_cpus_1.iq.fu_full::SimdAddAcc            0      0.00%     78.56% # attempts to use FU when none available
system.switch_cpus_1.iq.fu_full::SimdAlu            1      0.00%     78.56% # attempts to use FU when none available
system.switch_cpus_1.iq.fu_full::SimdCmp            0      0.00%     78.56% # attempts to use FU when none available
system.switch_cpus_1.iq.fu_full::SimdCvt            3      0.00%     78.56% # attempts to use FU when none available
system.switch_cpus_1.iq.fu_full::SimdMisc            0      0.00%     78.56% # attempts to use FU when none available
system.switch_cpus_1.iq.fu_full::SimdMult            0      0.00%     78.56% # attempts to use FU when none available
system.switch_cpus_1.iq.fu_full::SimdMultAcc            0      0.00%     78.56% # attempts to use FU when none available
system.switch_cpus_1.iq.fu_full::SimdShift            0      0.00%     78.56% # attempts to use FU when none available
system.switch_cpus_1.iq.fu_full::SimdShiftAcc            0      0.00%     78.56% # attempts to use FU when none available
system.switch_cpus_1.iq.fu_full::SimdDiv            0      0.00%     78.56% # attempts to use FU when none available
system.switch_cpus_1.iq.fu_full::SimdSqrt            0      0.00%     78.56% # attempts to use FU when none available
system.switch_cpus_1.iq.fu_full::SimdFloatAdd            0      0.00%     78.56% # attempts to use FU when none available
system.switch_cpus_1.iq.fu_full::SimdFloatAlu            0      0.00%     78.56% # attempts to use FU when none available
system.switch_cpus_1.iq.fu_full::SimdFloatCmp            0      0.00%     78.56% # attempts to use FU when none available
system.switch_cpus_1.iq.fu_full::SimdFloatCvt            0      0.00%     78.56% # attempts to use FU when none available
system.switch_cpus_1.iq.fu_full::SimdFloatDiv            0      0.00%     78.56% # attempts to use FU when none available
system.switch_cpus_1.iq.fu_full::SimdFloatMisc            0      0.00%     78.56% # attempts to use FU when none available
system.switch_cpus_1.iq.fu_full::SimdFloatMult            0      0.00%     78.56% # attempts to use FU when none available
system.switch_cpus_1.iq.fu_full::SimdFloatMultAcc            0      0.00%     78.56% # attempts to use FU when none available
system.switch_cpus_1.iq.fu_full::SimdFloatSqrt            0      0.00%     78.56% # attempts to use FU when none available
system.switch_cpus_1.iq.fu_full::SimdReduceAdd            0      0.00%     78.56% # attempts to use FU when none available
system.switch_cpus_1.iq.fu_full::SimdReduceAlu            0      0.00%     78.56% # attempts to use FU when none available
system.switch_cpus_1.iq.fu_full::SimdReduceCmp            0      0.00%     78.56% # attempts to use FU when none available
system.switch_cpus_1.iq.fu_full::SimdFloatReduceAdd            0      0.00%     78.56% # attempts to use FU when none available
system.switch_cpus_1.iq.fu_full::SimdFloatReduceCmp            0      0.00%     78.56% # attempts to use FU when none available
system.switch_cpus_1.iq.fu_full::SimdAes            0      0.00%     78.56% # attempts to use FU when none available
system.switch_cpus_1.iq.fu_full::SimdAesMix            0      0.00%     78.56% # attempts to use FU when none available
system.switch_cpus_1.iq.fu_full::SimdSha1Hash            0      0.00%     78.56% # attempts to use FU when none available
system.switch_cpus_1.iq.fu_full::SimdSha1Hash2            0      0.00%     78.56% # attempts to use FU when none available
system.switch_cpus_1.iq.fu_full::SimdSha256Hash            0      0.00%     78.56% # attempts to use FU when none available
system.switch_cpus_1.iq.fu_full::SimdSha256Hash2            0      0.00%     78.56% # attempts to use FU when none available
system.switch_cpus_1.iq.fu_full::SimdShaSigma2            0      0.00%     78.56% # attempts to use FU when none available
system.switch_cpus_1.iq.fu_full::SimdShaSigma3            0      0.00%     78.56% # attempts to use FU when none available
system.switch_cpus_1.iq.fu_full::SimdPredAlu            0      0.00%     78.56% # attempts to use FU when none available
system.switch_cpus_1.iq.fu_full::MemRead      1952694     20.61%     99.16% # attempts to use FU when none available
system.switch_cpus_1.iq.fu_full::MemWrite        79086      0.83%    100.00% # attempts to use FU when none available
system.switch_cpus_1.iq.fu_full::FloatMemRead            4      0.00%    100.00% # attempts to use FU when none available
system.switch_cpus_1.iq.fu_full::FloatMemWrite           79      0.00%    100.00% # attempts to use FU when none available
system.switch_cpus_1.iq.fu_full::IprAccess            0      0.00%    100.00% # attempts to use FU when none available
system.switch_cpus_1.iq.fu_full::InstPrefetch            0      0.00%    100.00% # attempts to use FU when none available
system.switch_cpus_1.iq.int_alu_accesses    879088547                       # Number of integer alu accesses
system.switch_cpus_1.iq.int_inst_queue_reads   2421246151                       # Number of integer instruction queue reads
system.switch_cpus_1.iq.int_inst_queue_wakeup_accesses    825524149                       # Number of integer instruction queue wakeup accesses
system.switch_cpus_1.iq.int_inst_queue_writes   1438887281                       # Number of integer instruction queue writes
system.switch_cpus_1.iq.iqInstsAdded       1015600543                       # Number of instructions added to the IQ (excludes non-spec)
system.switch_cpus_1.iq.iqInstsIssued       872977673                       # Number of instructions issued
system.switch_cpus_1.iq.iqNonSpecInstsAdded          214                       # Number of non-speculative instructions added to the IQ
system.switch_cpus_1.iq.iqSquashedInstsExamined    424210340                       # Number of squashed instructions iterated over during squash; mainly for profiling
system.switch_cpus_1.iq.iqSquashedInstsIssued      2312315                       # Number of squashed instructions issued
system.switch_cpus_1.iq.iqSquashedNonSpecRemoved          208                       # Number of squashed non-spec instructions that were removed
system.switch_cpus_1.iq.iqSquashedOperandsExamined    615037011                       # Number of squashed operands that are examined and possibly removed from graph
system.switch_cpus_1.iq.issued_per_cycle::samples    664124889                       # Number of insts issued each cycle
system.switch_cpus_1.iq.issued_per_cycle::mean     1.314478                       # Number of insts issued each cycle
system.switch_cpus_1.iq.issued_per_cycle::stdev     2.055909                       # Number of insts issued each cycle
system.switch_cpus_1.iq.issued_per_cycle::underflows            0      0.00%      0.00% # Number of insts issued each cycle
system.switch_cpus_1.iq.issued_per_cycle::0    402407857     60.59%     60.59% # Number of insts issued each cycle
system.switch_cpus_1.iq.issued_per_cycle::1     60744752      9.15%     69.74% # Number of insts issued each cycle
system.switch_cpus_1.iq.issued_per_cycle::2     51603811      7.77%     77.51% # Number of insts issued each cycle
system.switch_cpus_1.iq.issued_per_cycle::3     37801223      5.69%     83.20% # Number of insts issued each cycle
system.switch_cpus_1.iq.issued_per_cycle::4     36050440      5.43%     88.63% # Number of insts issued each cycle
system.switch_cpus_1.iq.issued_per_cycle::5     29738319      4.48%     93.11% # Number of insts issued each cycle
system.switch_cpus_1.iq.issued_per_cycle::6     24821175      3.74%     96.84% # Number of insts issued each cycle
system.switch_cpus_1.iq.issued_per_cycle::7     13857271      2.09%     98.93% # Number of insts issued each cycle
system.switch_cpus_1.iq.issued_per_cycle::8      7100041      1.07%    100.00% # Number of insts issued each cycle
system.switch_cpus_1.iq.issued_per_cycle::overflows            0      0.00%    100.00% # Number of insts issued each cycle
system.switch_cpus_1.iq.issued_per_cycle::min_value            0                       # Number of insts issued each cycle
system.switch_cpus_1.iq.issued_per_cycle::max_value            8                       # Number of insts issued each cycle
system.switch_cpus_1.iq.issued_per_cycle::total    664124889                       # Number of insts issued each cycle
system.switch_cpus_1.iq.rate                 1.314387                       # Inst issue rate
system.switch_cpus_1.iq.vec_alu_accesses            0                       # Number of vector alu accesses
system.switch_cpus_1.iq.vec_inst_queue_reads            0                       # Number of vector instruction queue reads
system.switch_cpus_1.iq.vec_inst_queue_wakeup_accesses            0                       # Number of vector instruction queue wakeup accesses
system.switch_cpus_1.iq.vec_inst_queue_writes            0                       # Number of vector instruction queue writes
system.switch_cpus_1.itb.rdAccesses                 0                       # TLB accesses on read requests
system.switch_cpus_1.itb.rdMisses                   0                       # TLB misses on read requests
system.switch_cpus_1.itb.wrAccesses          83230457                       # TLB accesses on write requests
system.switch_cpus_1.itb.wrMisses                 852                       # TLB misses on write requests
system.switch_cpus_1.memDep0.conflictingLoads     30773165                       # Number of conflicting loads.
system.switch_cpus_1.memDep0.conflictingStores     18004921                       # Number of conflicting stores.
system.switch_cpus_1.memDep0.insertedLoads    182024102                       # Number of loads inserted to the mem dependence unit.
system.switch_cpus_1.memDep0.insertedStores     65223423                       # Number of stores inserted to the mem dependence unit.
system.switch_cpus_1.misc_regfile_reads     361713208                       # number of misc regfile reads
system.switch_cpus_1.numCycles              664170936                       # number of cpu cycles simulated
system.switch_cpus_1.numWorkItemsCompleted            0                       # number of work items this cpu completed
system.switch_cpus_1.numWorkItemsStarted            0                       # number of work items this cpu started
system.switch_cpus_1.rename.BlockCycles     271768640                       # Number of cycles rename is blocking
system.switch_cpus_1.rename.CommittedMaps    743940138                       # Number of HB maps that are committed
system.switch_cpus_1.rename.IQFullEvents     46191073                       # Number of times rename has blocked due to IQ full
system.switch_cpus_1.rename.IdleCycles       83133887                       # Number of cycles rename is idle
system.switch_cpus_1.rename.LQFullEvents     23147258                       # Number of times rename has blocked due to LQ full
system.switch_cpus_1.rename.ROBFullEvents      4407961                       # Number of times rename has blocked due to ROB full
system.switch_cpus_1.rename.RenameLookups   2850684856                       # Number of register rename lookups that rename has made
system.switch_cpus_1.rename.RenamedInsts   1121228187                       # Number of instructions processed by rename
system.switch_cpus_1.rename.RenamedOperands   1362360493                       # Number of destination operands rename has renamed
system.switch_cpus_1.rename.RunCycles       146911774                       # Number of cycles rename is running
system.switch_cpus_1.rename.SQFullEvents     74768287                       # Number of times rename has blocked due to SQ full
system.switch_cpus_1.rename.SquashCycles     11031611                       # Number of cycles rename is squashing
system.switch_cpus_1.rename.UnblockCycles    151278630                       # Number of cycles rename is unblocking
system.switch_cpus_1.rename.UndoneMaps      618420355                       # Number of HB maps that are undone due to squashing
system.switch_cpus_1.rename.fp_rename_lookups      2392144                       # Number of floating rename lookups
system.switch_cpus_1.rename.int_rename_lookups   1820280271                       # Number of integer rename lookups
system.switch_cpus_1.rename.serializeStallCycles          337                       # count of cycles rename stalled for serializing inst
system.switch_cpus_1.rename.serializingInsts            7                       # count of serializing insts renamed
system.switch_cpus_1.rename.skidInsts       142346989                       # count of insts added to the skid buffer
system.switch_cpus_1.rename.tempSerializingInsts            7                       # count of temporary serializing insts renamed
system.switch_cpus_1.rob.rob_reads         1582634315                       # The number of ROB reads
system.switch_cpus_1.rob.rob_writes        2095055191                       # The number of ROB writes
system.switch_cpus_1.timesIdled                   358                       # Number of times that the entire CPU went into an idle state and unscheduled itself
system.tol2bus.snoop_filter.hit_multi_requests            0                       # Number of requests hitting in the snoop filter with multiple (>1) holders of the requested data.
system.tol2bus.snoop_filter.hit_multi_snoops            0                       # Number of snoops hitting in the snoop filter with multiple (>1) holders of the requested data.
system.tol2bus.snoop_filter.hit_single_requests      5769008                       # Number of requests hitting in the snoop filter with a single holder of the requested data.
system.tol2bus.snoop_filter.hit_single_snoops        23954                       # Number of snoops hitting in the snoop filter with a single holder of the requested data.
system.tol2bus.snoop_filter.tot_requests     11338623                       # Total number of requests made to the snoop filter.
system.tol2bus.snoop_filter.tot_snoops          23954                       # Total number of snoops made to the snoop filter.
system.tol3bus.snoop_filter.hit_multi_requests            0                       # Number of requests hitting in the snoop filter with multiple (>1) holders of the requested data.
system.tol3bus.snoop_filter.hit_multi_snoops            0                       # Number of snoops hitting in the snoop filter with multiple (>1) holders of the requested data.
system.tol3bus.snoop_filter.hit_single_requests      5002979                       # Number of requests hitting in the snoop filter with a single holder of the requested data.
system.tol3bus.snoop_filter.hit_single_snoops       299854                       # Number of snoops hitting in the snoop filter with a single holder of the requested data.
system.tol3bus.snoop_filter.tot_requests      9919296                       # Total number of requests made to the snoop filter.
system.tol3bus.snoop_filter.tot_snoops         299854                       # Total number of snoops made to the snoop filter.
system.membus.trans_dist::ReadResp             995889                       # Transaction distribution
system.membus.trans_dist::WritebackDirty       628461                       # Transaction distribution
system.membus.trans_dist::CleanEvict           886892                       # Transaction distribution
system.membus.trans_dist::UpgradeReq               14                       # Transaction distribution
system.membus.trans_dist::ReadExReq            519108                       # Transaction distribution
system.membus.trans_dist::ReadExResp           519108                       # Transaction distribution
system.membus.trans_dist::ReadSharedReq        995889                       # Transaction distribution
system.membus.pkt_count_system.l3.mem_side::system.mem_ctrls.port      4545361                       # Packet count per connected master and slave (bytes)
system.membus.pkt_count_system.l3.mem_side::total      4545361                       # Packet count per connected master and slave (bytes)
system.membus.pkt_count::total                4545361                       # Packet count per connected master and slave (bytes)
system.membus.pkt_size_system.l3.mem_side::system.mem_ctrls.port    137181312                       # Cumulative packet size per connected master and slave (bytes)
system.membus.pkt_size_system.l3.mem_side::total    137181312                       # Cumulative packet size per connected master and slave (bytes)
system.membus.pkt_size::total               137181312                       # Cumulative packet size per connected master and slave (bytes)
system.membus.snoops                                0                       # Total snoops (count)
system.membus.snoopTraffic                          0                       # Total snoop traffic (bytes)
system.membus.snoop_fanout::samples           1515011                       # Request fanout histogram
system.membus.snoop_fanout::mean                    0                       # Request fanout histogram
system.membus.snoop_fanout::stdev                   0                       # Request fanout histogram
system.membus.snoop_fanout::underflows              0      0.00%      0.00% # Request fanout histogram
system.membus.snoop_fanout::0                 1515011    100.00%    100.00% # Request fanout histogram
system.membus.snoop_fanout::1                       0      0.00%    100.00% # Request fanout histogram
system.membus.snoop_fanout::overflows               0      0.00%    100.00% # Request fanout histogram
system.membus.snoop_fanout::min_value               0                       # Request fanout histogram
system.membus.snoop_fanout::max_value               0                       # Request fanout histogram
system.membus.snoop_fanout::total             1515011                       # Request fanout histogram
system.membus.reqLayer2.occupancy          6013676500                       # Layer occupancy (ticks)
system.membus.reqLayer2.utilization               1.8                       # Layer utilization (%)
system.membus.respLayer1.occupancy         8247020500                       # Layer occupancy (ticks)
system.membus.respLayer1.utilization              2.5                       # Layer utilization (%)
system.membus.power_state.pwrStateResidencyTicks::UNDEFINED 1475130433000                       # Cumulative time (in ticks) in various power states
system.switch_cpus_1.dtb.walker.power_state.pwrStateResidencyTicks::UNDEFINED 1475130433000                       # Cumulative time (in ticks) in various power states
system.switch_cpus_1.itb.walker.power_state.pwrStateResidencyTicks::UNDEFINED 1475130433000                       # Cumulative time (in ticks) in various power states
system.switch_cpus_1.power_state.pwrStateResidencyTicks::OFF 1475130433000                       # Cumulative time (in ticks) in various power states
system.switch_cpus.dtb.walker.power_state.pwrStateResidencyTicks::UNDEFINED 1475130433000                       # Cumulative time (in ticks) in various power states
system.switch_cpus.itb.walker.power_state.pwrStateResidencyTicks::UNDEFINED 1475130433000                       # Cumulative time (in ticks) in various power states
system.switch_cpus.power_state.numTransitions            1                       # Number of power state transitions
system.switch_cpus.power_state.pwrStateResidencyTicks::OFF 1475130433000                       # Cumulative time (in ticks) in various power states
system.tol2bus.trans_dist::ReadResp           4633767                       # Transaction distribution
system.tol2bus.trans_dist::WritebackDirty      1916861                       # Transaction distribution
system.tol2bus.trans_dist::WritebackClean          646                       # Transaction distribution
system.tol2bus.trans_dist::CleanEvict         4734432                       # Transaction distribution
system.tol2bus.trans_dist::UpgradeReq          199388                       # Transaction distribution
system.tol2bus.trans_dist::UpgradeResp         199388                       # Transaction distribution
system.tol2bus.trans_dist::ReadExReq           935850                       # Transaction distribution
system.tol2bus.trans_dist::ReadExResp          935850                       # Transaction distribution
system.tol2bus.trans_dist::ReadCleanReq       4633768                       # Transaction distribution
system.tol2bus.pkt_count_system.cpu.icache.mem_side::system.l2.cpu_side         1939                       # Packet count per connected master and slave (bytes)
system.tol2bus.pkt_count_system.cpu.dcache.mem_side::system.l2.cpu_side     17105689                       # Packet count per connected master and slave (bytes)
system.tol2bus.pkt_count::total              17107628                       # Packet count per connected master and slave (bytes)
system.tol2bus.pkt_size_system.cpu.icache.mem_side::system.l2.cpu_side        82688                       # Cumulative packet size per connected master and slave (bytes)
system.tol2bus.pkt_size_system.cpu.dcache.mem_side::system.l2.cpu_side    429041984                       # Cumulative packet size per connected master and slave (bytes)
system.tol2bus.pkt_size::total              429124672                       # Cumulative packet size per connected master and slave (bytes)
system.tol2bus.snoops                         1082322                       # Total snoops (count)
system.tol2bus.snoopTraffic                  50051264                       # Total snoop traffic (bytes)
system.tol2bus.snoop_fanout::samples          6851328                       # Request fanout histogram
system.tol2bus.snoop_fanout::mean            0.003497                       # Request fanout histogram
system.tol2bus.snoop_fanout::stdev           0.059029                       # Request fanout histogram
system.tol2bus.snoop_fanout::underflows             0      0.00%      0.00% # Request fanout histogram
system.tol2bus.snoop_fanout::0                6827371     99.65%     99.65% # Request fanout histogram
system.tol2bus.snoop_fanout::1                  23957      0.35%    100.00% # Request fanout histogram
system.tol2bus.snoop_fanout::2                      0      0.00%    100.00% # Request fanout histogram
system.tol2bus.snoop_fanout::3                      0      0.00%    100.00% # Request fanout histogram
system.tol2bus.snoop_fanout::4                      0      0.00%    100.00% # Request fanout histogram
system.tol2bus.snoop_fanout::overflows              0      0.00%    100.00% # Request fanout histogram
system.tol2bus.snoop_fanout::min_value              0                       # Request fanout histogram
system.tol2bus.snoop_fanout::max_value              1                       # Request fanout histogram
system.tol2bus.snoop_fanout::total            6851328                       # Request fanout histogram
system.tol2bus.reqLayer0.occupancy         6804767500                       # Layer occupancy (ticks)
system.tol2bus.reqLayer0.utilization              2.0                       # Layer utilization (%)
system.tol2bus.respLayer1.occupancy        8453150500                       # Layer occupancy (ticks)
system.tol2bus.respLayer1.utilization             2.5                       # Layer utilization (%)
system.tol2bus.respLayer0.occupancy            969000                       # Layer occupancy (ticks)
system.tol2bus.respLayer0.utilization             0.0                       # Layer utilization (%)
system.tol2bus.power_state.pwrStateResidencyTicks::UNDEFINED 1475130433000                       # Cumulative time (in ticks) in various power states
system.voltage_domain.voltage                       1                       # Voltage in Volts
system.clk_domain.clock                          1000                       # Clock period in ticks
system.l2.demand_hits::.switch_cpus_1.inst           56                       # number of demand (read+write) hits
system.l2.demand_hits::.switch_cpus_1.data       653241                       # number of demand (read+write) hits
system.l2.demand_hits::total                   653297                       # number of demand (read+write) hits
system.l2.overall_hits::.switch_cpus_1.inst           56                       # number of overall hits
system.l2.overall_hits::.switch_cpus_1.data       653241                       # number of overall hits
system.l2.overall_hits::total                  653297                       # number of overall hits
system.l2.demand_misses::.switch_cpus_1.inst          591                       # number of demand (read+write) misses
system.l2.demand_misses::.switch_cpus_1.data      4915730                       # number of demand (read+write) misses
system.l2.demand_misses::total                4916321                       # number of demand (read+write) misses
system.l2.overall_misses::.switch_cpus_1.inst          591                       # number of overall misses
system.l2.overall_misses::.switch_cpus_1.data      4915730                       # number of overall misses
system.l2.overall_misses::total               4916321                       # number of overall misses
system.l2.demand_miss_latency::.switch_cpus_1.inst     61329500                       # number of demand (read+write) miss cycles
system.l2.demand_miss_latency::.switch_cpus_1.data 255525172500                       # number of demand (read+write) miss cycles
system.l2.demand_miss_latency::total     255586502000                       # number of demand (read+write) miss cycles
system.l2.overall_miss_latency::.switch_cpus_1.inst     61329500                       # number of overall miss cycles
system.l2.overall_miss_latency::.switch_cpus_1.data 255525172500                       # number of overall miss cycles
system.l2.overall_miss_latency::total    255586502000                       # number of overall miss cycles
system.l2.demand_accesses::.switch_cpus_1.inst          647                       # number of demand (read+write) accesses
system.l2.demand_accesses::.switch_cpus_1.data      5568971                       # number of demand (read+write) accesses
system.l2.demand_accesses::total              5569618                       # number of demand (read+write) accesses
system.l2.overall_accesses::.switch_cpus_1.inst          647                       # number of overall (read+write) accesses
system.l2.overall_accesses::.switch_cpus_1.data      5568971                       # number of overall (read+write) accesses
system.l2.overall_accesses::total             5569618                       # number of overall (read+write) accesses
[...]
system.cpu.dcache.overall_misses::total      24242802                       # number of overall misses
system.cpu.dcache.demand_miss_latency::.switch_cpus.data  28529006000                       # number of demand (read+write) miss cycles
system.cpu.dcache.demand_miss_latency::.switch_cpus_1.data 430787958444                       # number of demand (read+write) miss cycles
system.cpu.dcache.demand_miss_latency::total 459316964444                       # number of demand (read+write) miss cycles
system.cpu.dcache.overall_miss_latency::.switch_cpus.data  28529006000                       # number of overall miss cycles
system.cpu.dcache.overall_miss_latency::.switch_cpus_1.data 430787958444                       # number of overall miss cycles
system.cpu.dcache.overall_miss_latency::total 459316964444                       # number of overall miss cycles
system.cpu.dcache.demand_accesses::.cpu.data    433795334                       # number of demand (read+write) accesses
system.cpu.dcache.demand_accesses::.switch_cpus.data     21480199                       # number of demand (read+write) accesses
system.cpu.dcache.demand_accesses::.switch_cpus_1.data    168147155                       # number of demand (read+write) accesses
system.cpu.dcache.demand_accesses::total    623422688                       # number of demand (read+write) accesses
system.cpu.dcache.overall_accesses::.cpu.data    433795334                       # number of overall (read+write) accesses
system.cpu.dcache.overall_accesses::.switch_cpus.data     21480199                       # number of overall (read+write) accesses
system.cpu.dcache.overall_accesses::.switch_cpus_1.data    168147155                       # number of overall (read+write) accesses
system.cpu.dcache.overall_accesses::total    623422688                       # number of overall (read+write) accesses
system.cpu.dcache.demand_miss_rate::.cpu.data     0.034799                       # miss rate for demand accesses
system.cpu.dcache.demand_miss_rate::.switch_cpus.data     0.027682                       # miss rate for demand accesses
system.cpu.dcache.demand_miss_rate::.switch_cpus_1.data     0.050863                       # miss rate for demand accesses
system.cpu.dcache.demand_miss_rate::total     0.038887                       # miss rate for demand accesses
system.cpu.dcache.overall_miss_rate::.cpu.data     0.034799                       # miss rate for overall accesses
system.cpu.dcache.overall_miss_rate::.switch_cpus.data     0.027682                       # miss rate for overall accesses
system.cpu.dcache.overall_miss_rate::.switch_cpus_1.data     0.050863                       # miss rate for overall accesses
system.cpu.dcache.overall_miss_rate::total     0.038887                       # miss rate for overall accesses
system.cpu.dcache.demand_avg_miss_latency::.switch_cpus.data 47979.519280                       # average overall miss latency
system.cpu.dcache.demand_avg_miss_latency::.switch_cpus_1.data 50369.634171                       # average overall miss latency
system.cpu.dcache.demand_avg_miss_latency::total 18946.529549                       # average overall miss latency
system.cpu.dcache.overall_avg_miss_latency::.switch_cpus.data 47979.519280                       # average overall miss latency
system.cpu.dcache.overall_avg_miss_latency::.switch_cpus_1.data 50369.634171                       # average overall miss latency
system.cpu.dcache.overall_avg_miss_latency::total 18946.529549                       # average overall miss latency
system.cpu.dcache.blocked_cycles::no_mshrs     26158328                       # number of cycles access was blocked
system.cpu.dcache.blocked_cycles::no_targets          515                       # number of cycles access was blocked
system.cpu.dcache.blocked::no_mshrs           1143748                       # number of cycles access was blocked
system.cpu.dcache.blocked::no_targets              13                       # number of cycles access was blocked
system.cpu.dcache.avg_blocked_cycles::no_mshrs    22.870709                       # average number of cycles each access was blocked
system.cpu.dcache.avg_blocked_cycles::no_targets    39.615385                       # average number of cycles each access was blocked
system.cpu.dcache.writebacks::.writebacks      5763119                       # number of writebacks
system.cpu.dcache.writebacks::total           5763119                       # number of writebacks
system.cpu.dcache.demand_mshr_hits::.switch_cpus_1.data      2784189                       # number of demand (read+write) MSHR hits
system.cpu.dcache.demand_mshr_hits::total      2784189                       # number of demand (read+write) MSHR hits
system.cpu.dcache.overall_mshr_hits::.switch_cpus_1.data      2784189                       # number of overall MSHR hits
system.cpu.dcache.overall_mshr_hits::total      2784189                       # number of overall MSHR hits
system.cpu.dcache.demand_mshr_misses::.switch_cpus.data       594608                       # number of demand (read+write) MSHR misses
system.cpu.dcache.demand_mshr_misses::.switch_cpus_1.data      5768344                       # number of demand (read+write) MSHR misses
system.cpu.dcache.demand_mshr_misses::total      6362952                       # number of demand (read+write) MSHR misses
system.cpu.dcache.overall_mshr_misses::.switch_cpus.data       594608                       # number of overall MSHR misses
system.cpu.dcache.overall_mshr_misses::.switch_cpus_1.data      5768344                       # number of overall MSHR misses
system.cpu.dcache.overall_mshr_misses::total      6362952                       # number of overall MSHR misses
system.cpu.dcache.demand_mshr_miss_latency::.switch_cpus.data  27934398000                       # number of demand (read+write) MSHR miss cycles
system.cpu.dcache.demand_mshr_miss_latency::.switch_cpus_1.data 274371651944                       # number of demand (read+write) MSHR miss cycles
system.cpu.dcache.demand_mshr_miss_latency::total 302306049944                       # number of demand (read+write) MSHR miss cycles
system.cpu.dcache.overall_mshr_miss_latency::.switch_cpus.data  27934398000                       # number of overall MSHR miss cycles
system.cpu.dcache.overall_mshr_miss_latency::.switch_cpus_1.data 274371651944                       # number of overall MSHR miss cycles
system.cpu.dcache.overall_mshr_miss_latency::total 302306049944                       # number of overall MSHR miss cycles
system.cpu.dcache.demand_mshr_miss_rate::.switch_cpus.data     0.027682                       # mshr miss rate for demand accesses
system.cpu.dcache.demand_mshr_miss_rate::.switch_cpus_1.data     0.034305                       # mshr miss rate for demand accesses
system.cpu.dcache.demand_mshr_miss_rate::total     0.010206                       # mshr miss rate for demand accesses
system.cpu.dcache.overall_mshr_miss_rate::.switch_cpus.data     0.027682                       # mshr miss rate for overall accesses
system.cpu.dcache.overall_mshr_miss_rate::.switch_cpus_1.data     0.034305                       # mshr miss rate for overall accesses
system.cpu.dcache.overall_mshr_miss_rate::total     0.010206                       # mshr miss rate for overall accesses
system.cpu.dcache.demand_avg_mshr_miss_latency::.switch_cpus.data 46979.519280                       # average overall mshr miss latency
system.cpu.dcache.demand_avg_mshr_miss_latency::.switch_cpus_1.data 47565.064071                       # average overall mshr miss latency
system.cpu.dcache.demand_avg_mshr_miss_latency::total 47510.345818                       # average overall mshr miss latency
system.cpu.dcache.overall_avg_mshr_miss_latency::.switch_cpus.data 46979.519280                       # average overall mshr miss latency
system.cpu.dcache.overall_avg_mshr_miss_latency::.switch_cpus_1.data 47565.064071                       # average overall mshr miss latency
system.cpu.dcache.overall_avg_mshr_miss_latency::total 47510.345818                       # average overall mshr miss latency
system.cpu.dcache.replacements               19763253                       # number of replacements
system.cpu.dcache.ReadReq_hits::.cpu.data    311145526                       # number of ReadReq hits
system.cpu.dcache.ReadReq_hits::.switch_cpus.data     17716162                       # number of ReadReq hits
system.cpu.dcache.ReadReq_hits::.switch_cpus_1.data    125933498                       # number of ReadReq hits
system.cpu.dcache.ReadReq_hits::total       454795186                       # number of ReadReq hits
system.cpu.dcache.ReadReq_misses::.cpu.data     10610433                       # number of ReadReq misses
system.cpu.dcache.ReadReq_misses::.switch_cpus.data       451504                       # number of ReadReq misses
system.cpu.dcache.ReadReq_misses::.switch_cpus_1.data      7417295                       # number of ReadReq misses
system.cpu.dcache.ReadReq_misses::total      18479232                       # number of ReadReq misses
system.cpu.dcache.ReadReq_miss_latency::.switch_cpus.data  19867315500                       # number of ReadReq miss cycles
system.cpu.dcache.ReadReq_miss_latency::.switch_cpus_1.data 363335055500                       # number of ReadReq miss cycles
system.cpu.dcache.ReadReq_miss_latency::total 383202371000                       # number of ReadReq miss cycles
system.cpu.dcache.ReadReq_accesses::.cpu.data    321755959                       # number of ReadReq accesses(hits+misses)
system.cpu.dcache.ReadReq_accesses::.switch_cpus.data     18167666                       # number of ReadReq accesses(hits+misses)
system.cpu.dcache.ReadReq_accesses::.switch_cpus_1.data    133350793                       # number of ReadReq accesses(hits+misses)
system.cpu.dcache.ReadReq_accesses::total    473274418                       # number of ReadReq accesses(hits+misses)
system.cpu.dcache.ReadReq_miss_rate::.cpu.data     0.032977                       # miss rate for ReadReq accesses
system.cpu.dcache.ReadReq_miss_rate::.switch_cpus.data     0.024852                       # miss rate for ReadReq accesses
system.cpu.dcache.ReadReq_miss_rate::.switch_cpus_1.data     0.055622                       # miss rate for ReadReq accesses
system.cpu.dcache.ReadReq_miss_rate::total     0.039045                       # miss rate for ReadReq accesses
system.cpu.dcache.ReadReq_avg_miss_latency::.switch_cpus.data 44002.523787                       # average ReadReq miss latency
system.cpu.dcache.ReadReq_avg_miss_latency::.switch_cpus_1.data 48984.846295                       # average ReadReq miss latency
system.cpu.dcache.ReadReq_avg_miss_latency::total 20736.920831                       # average ReadReq miss latency
system.cpu.dcache.ReadReq_mshr_hits::.switch_cpus_1.data      2784171                       # number of ReadReq MSHR hits
system.cpu.dcache.ReadReq_mshr_hits::total      2784171                       # number of ReadReq MSHR hits
system.cpu.dcache.ReadReq_mshr_misses::.switch_cpus.data       451504                       # number of ReadReq MSHR misses
system.cpu.dcache.ReadReq_mshr_misses::.switch_cpus_1.data      4633124                       # number of ReadReq MSHR misses
system.cpu.dcache.ReadReq_mshr_misses::total      5084628                       # number of ReadReq MSHR misses
system.cpu.dcache.ReadReq_mshr_miss_latency::.switch_cpus.data  19415811500                       # number of ReadReq MSHR miss cycles
system.cpu.dcache.ReadReq_mshr_miss_latency::.switch_cpus_1.data 208054024500                       # number of ReadReq MSHR miss cycles
system.cpu.dcache.ReadReq_mshr_miss_latency::total 227469836000                       # number of ReadReq MSHR miss cycles
system.cpu.dcache.ReadReq_mshr_miss_rate::.switch_cpus.data     0.024852                       # mshr miss rate for ReadReq accesses
system.cpu.dcache.ReadReq_mshr_miss_rate::.switch_cpus_1.data     0.034744                       # mshr miss rate for ReadReq accesses
system.cpu.dcache.ReadReq_mshr_miss_rate::total     0.010744                       # mshr miss rate for ReadReq accesses
system.cpu.dcache.ReadReq_avg_mshr_miss_latency::.switch_cpus.data 43002.523787                       # average ReadReq mshr miss latency
system.cpu.dcache.ReadReq_avg_mshr_miss_latency::.switch_cpus_1.data 44905.775131                       # average ReadReq mshr miss latency
system.cpu.dcache.ReadReq_avg_mshr_miss_latency::total 44736.770517                       # average ReadReq mshr miss latency
system.cpu.dcache.WriteReq_hits::.cpu.data    107554147                       # number of WriteReq hits
system.cpu.dcache.WriteReq_hits::.switch_cpus.data      3169429                       # number of WriteReq hits
system.cpu.dcache.WriteReq_hits::.switch_cpus_1.data     33661124                       # number of WriteReq hits
system.cpu.dcache.WriteReq_hits::total      144384700                       # number of WriteReq hits
system.cpu.dcache.WriteReq_misses::.cpu.data      4485228                       # number of WriteReq misses
system.cpu.dcache.WriteReq_misses::.switch_cpus.data       143104                       # number of WriteReq misses
system.cpu.dcache.WriteReq_misses::.switch_cpus_1.data      1135238                       # number of WriteReq misses
system.cpu.dcache.WriteReq_misses::total      5763570                       # number of WriteReq misses
system.cpu.dcache.WriteReq_miss_latency::.switch_cpus.data   8661690500                       # number of WriteReq miss cycles
system.cpu.dcache.WriteReq_miss_latency::.switch_cpus_1.data  67452902944                       # number of WriteReq miss cycles
system.cpu.dcache.WriteReq_miss_latency::total  76114593444                       # number of WriteReq miss cycles
system.cpu.dcache.WriteReq_accesses::.cpu.data    112039375                       # number of WriteReq accesses(hits+misses)
system.cpu.dcache.WriteReq_accesses::.switch_cpus.data      3312533                       # number of WriteReq accesses(hits+misses)
system.cpu.dcache.WriteReq_accesses::.switch_cpus_1.data     34796362                       # number of WriteReq accesses(hits+misses)
system.cpu.dcache.WriteReq_accesses::total    150148270                       # number of WriteReq accesses(hits+misses)
system.cpu.dcache.WriteReq_miss_rate::.cpu.data     0.040033                       # miss rate for WriteReq accesses
system.cpu.dcache.WriteReq_miss_rate::.switch_cpus.data     0.043201                       # miss rate for WriteReq accesses
system.cpu.dcache.WriteReq_miss_rate::.switch_cpus_1.data     0.032625                       # miss rate for WriteReq accesses
system.cpu.dcache.WriteReq_miss_rate::total     0.038386                       # miss rate for WriteReq accesses
system.cpu.dcache.WriteReq_avg_miss_latency::.switch_cpus.data 60527.242425                       # average WriteReq miss latency
system.cpu.dcache.WriteReq_avg_miss_latency::.switch_cpus_1.data 59417.411101                       # average WriteReq miss latency
system.cpu.dcache.WriteReq_avg_miss_latency::total 13206.154075                       # average WriteReq miss latency
system.cpu.dcache.WriteReq_mshr_hits::.switch_cpus_1.data           18                       # number of WriteReq MSHR hits
system.cpu.dcache.WriteReq_mshr_hits::total           18                       # number of WriteReq MSHR hits
system.cpu.dcache.WriteReq_mshr_misses::.switch_cpus.data       143104                       # number of WriteReq MSHR misses
system.cpu.dcache.WriteReq_mshr_misses::.switch_cpus_1.data      1135220                       # number of WriteReq MSHR misses
system.cpu.dcache.WriteReq_mshr_misses::total      1278324                       # number of WriteReq MSHR misses
system.cpu.dcache.WriteReq_mshr_miss_latency::.switch_cpus.data   8518586500                       # number of WriteReq MSHR miss cycles
system.cpu.dcache.WriteReq_mshr_miss_latency::.switch_cpus_1.data  66317627444                       # number of WriteReq MSHR miss cycles
system.cpu.dcache.WriteReq_mshr_miss_latency::total  74836213944                       # number of WriteReq MSHR miss cycles
system.cpu.dcache.WriteReq_mshr_miss_rate::.switch_cpus.data     0.043201                       # mshr miss rate for WriteReq accesses
system.cpu.dcache.WriteReq_mshr_miss_rate::.switch_cpus_1.data     0.032625                       # mshr miss rate for WriteReq accesses
system.cpu.dcache.WriteReq_mshr_miss_rate::total     0.008514                       # mshr miss rate for WriteReq accesses
system.cpu.dcache.WriteReq_avg_mshr_miss_latency::.switch_cpus.data 59527.242425                       # average WriteReq mshr miss latency
system.cpu.dcache.WriteReq_avg_mshr_miss_latency::.switch_cpus_1.data 58418.304332                       # average WriteReq mshr miss latency
system.cpu.dcache.WriteReq_avg_mshr_miss_latency::total 58542.446159                       # average WriteReq mshr miss latency
system.cpu.dcache.power_state.pwrStateResidencyTicks::UNDEFINED 1475130433000                       # Cumulative time (in ticks) in various power states
system.cpu.dcache.tags.tagsinuse           511.996015                       # Cycle average of tags in use
system.cpu.dcache.tags.total_refs           620814800                       # Total number of references to valid blocks.
system.cpu.dcache.tags.sampled_refs          19763765                       # Sample count of references to valid blocks.
system.cpu.dcache.tags.avg_refs             31.411768                       # Average number of references to valid blocks.
system.cpu.dcache.tags.warmup_cycle              1500                       # Cycle when the warmup percentage was hit.
system.cpu.dcache.tags.occ_blocks::.cpu.data   356.240016                       # Average occupied blocks per requestor
system.cpu.dcache.tags.occ_blocks::.switch_cpus.data    40.499161                       # Average occupied blocks per requestor
system.cpu.dcache.tags.occ_blocks::.switch_cpus_1.data   115.256838                       # Average occupied blocks per requestor
system.cpu.dcache.tags.occ_percent::.cpu.data     0.695781                       # Average percentage of cache occupancy
system.cpu.dcache.tags.occ_percent::.switch_cpus.data     0.079100                       # Average percentage of cache occupancy
system.cpu.dcache.tags.occ_percent::.switch_cpus_1.data     0.225111                       # Average percentage of cache occupancy
system.cpu.dcache.tags.occ_percent::total     0.999992                       # Average percentage of cache occupancy
system.cpu.dcache.tags.occ_task_id_blocks::1024          512                       # Occupied blocks per task id
system.cpu.dcache.tags.age_task_id_blocks_1024::0          134                       # Occupied blocks per task id
system.cpu.dcache.tags.age_task_id_blocks_1024::1          378                       # Occupied blocks per task id
system.cpu.dcache.tags.occ_task_id_percent::1024            1                       # Percentage of cache occupancy per task id
system.cpu.dcache.tags.tag_accesses        2513454517                       # Number of tag accesses
system.cpu.dcache.tags.data_accesses       2513454517                       # Number of data accesses
system.cpu.dcache.tags.power_state.pwrStateResidencyTicks::UNDEFINED 1475130433000                       # Cumulative time (in ticks) in various power states
system.cpu.power_state.numTransitions               2                       # Number of power state transitions
system.cpu.power_state.pwrStateResidencyTicks::ON 1026110788500                       # Cumulative time (in ticks) in various power states
system.cpu.power_state.pwrStateResidencyTicks::OFF 449019644500                       # Cumulative time (in ticks) in various power states

---------- End Simulation Statistics   ----------
