
---------- Begin Simulation Statistics ----------
final_tick                               1646807882500                       # Number of ticks from beginning of simulation (restored from checkpoints and never reset)
host_inst_rate                                 172273                       # Simulator instruction rate (inst/s)
host_mem_usage                                4596820                       # Number of bytes of host memory used
host_op_rate                                   333277                       # Simulator op (including micro ops) rate (op/s)
host_seconds                                 11899.71                       # Real time elapsed on the host
host_tick_rate                               32549509                       # Simulator tick rate (ticks/s)
sim_freq                                 1000000000000                       # Frequency of simulated ticks
sim_insts                                  2050000005                       # Number of instructions simulated
sim_ops                                    3965900578                       # Number of ops (including micro ops) simulated
sim_seconds                                  0.387330                       # Number of seconds simulated
sim_ticks                                387329830500                       # Number of ticks simulated
system.cpu.committedInsts                           0                       # Number of instructions committed
system.cpu.committedOps                             0                       # Number of ops (including micro ops) committed
system.cpu.dtb.rdAccesses                           0                       # TLB accesses on read requests
system.cpu.dtb.rdMisses                             0                       # TLB misses on read requests
system.cpu.dtb.wrAccesses                           0                       # TLB accesses on write requests
system.cpu.dtb.wrMisses                             0                       # TLB misses on write requests
system.cpu.idle_fraction                            0                       # Percentage of idle cycles
system.cpu.itb.rdAccesses                           0                       # TLB accesses on read requests
system.cpu.itb.rdMisses                             0                       # TLB misses on read requests
system.cpu.itb.wrAccesses                           0                       # TLB accesses on write requests
system.cpu.itb.wrMisses                             0                       # TLB misses on write requests
system.cpu.not_idle_fraction                        1                       # Percentage of non-idle cycles
system.cpu.numCycles                                0                       # number of cpu cycles simulated
system.cpu.numWorkItemsCompleted                    0                       # number of work items this cpu completed
system.cpu.numWorkItemsStarted                      0                       # number of work items this cpu started
system.cpu.num_busy_cycles                          0                       # Number of busy cycles
system.cpu.num_conditional_control_insts            0                       # number of instructions that are conditional controls
system.cpu.num_fp_alu_accesses                      0                       # Number of float alu accesses
system.cpu.num_fp_insts                             0                       # number of float instructions
system.cpu.num_fp_register_reads                    0                       # number of times the floating registers were read
system.cpu.num_fp_register_writes                   0                       # number of times the floating registers were written
system.cpu.num_func_calls                           0                       # number of times a function call or return occured
system.cpu.num_idle_cycles                          0                       # Number of idle cycles
system.cpu.num_int_alu_accesses                     0                       # Number of integer alu accesses
system.cpu.num_int_insts                            0                       # number of integer instructions
system.cpu.num_int_register_reads                   0                       # number of times the integer registers were read
system.cpu.num_int_register_writes                  0                       # number of times the integer registers were written
system.cpu.num_load_insts                           0                       # Number of load instructions
system.cpu.num_mem_refs                             0                       # number of memory refs
system.cpu.num_store_insts                          0                       # Number of store instructions
system.cpu.num_vec_alu_accesses                     0                       # Number of vector alu accesses
system.cpu.num_vec_insts                            0                       # number of vector instructions
system.cpu.num_vec_register_reads                   0                       # number of times the vector registers were read
system.cpu.num_vec_register_writes                  0                       # number of times the vector registers were written
system.cpu.op_class::No_OpClass                     0                       # Class of executed instruction
system.cpu.op_class::IntAlu                         0                       # Class of executed instruction
system.cpu.op_class::IntMult                        0                       # Class of executed instruction
system.cpu.op_class::IntDiv                         0                       # Class of executed instruction
system.cpu.op_class::FloatAdd                       0                       # Class of executed instruction
system.cpu.op_class::FloatCmp                       0                       # Class of executed instruction
system.cpu.op_class::FloatCvt                       0                       # Class of executed instruction
system.cpu.op_class::FloatMult                      0                       # Class of executed instruction
system.cpu.op_class::FloatMultAcc                   0                       # Class of executed instruction
system.cpu.op_class::FloatDiv                       0                       # Class of executed instruction
system.cpu.op_class::FloatMisc                      0                       # Class of executed instruction
system.cpu.op_class::FloatSqrt                      0                       # Class of executed instruction
system.cpu.op_class::SimdAdd                        0                       # Class of executed instruction
system.cpu.op_class::SimdAddAcc                     0                       # Class of executed instruction
system.cpu.op_class::SimdAlu                        0                       # Class of executed instruction
system.cpu.op_class::SimdCmp                        0                       # Class of executed instruction
system.cpu.op_class::SimdCvt                        0                       # Class of executed instruction
system.cpu.op_class::SimdMisc                       0                       # Class of executed instruction
system.cpu.op_class::SimdMult                       0                       # Class of executed instruction
system.cpu.op_class::SimdMultAcc                    0                       # Class of executed instruction
system.cpu.op_class::SimdShift                      0                       # Class of executed instruction
system.cpu.op_class::SimdShiftAcc                   0                       # Class of executed instruction
system.cpu.op_class::SimdDiv                        0                       # Class of executed instruction
system.cpu.op_class::SimdSqrt                       0                       # Class of executed instruction
system.cpu.op_class::SimdFloatAdd                   0                       # Class of executed instruction
system.cpu.op_class::SimdFloatAlu                   0                       # Class of executed instruction
system.cpu.op_class::SimdFloatCmp                   0                       # Class of executed instruction
system.cpu.op_class::SimdFloatCvt                   0                       # Class of executed instruction
system.cpu.op_class::SimdFloatDiv                   0                       # Class of executed instruction
system.cpu.op_class::SimdFloatMisc                  0                       # Class of executed instruction
system.cpu.op_class::SimdFloatMult                  0                       # Class of executed instruction
system.cpu.op_class::SimdFloatMultAcc               0                       # Class of executed instruction
system.cpu.op_class::SimdFloatSqrt                  0                       # Class of executed instruction
system.cpu.op_class::SimdReduceAdd                  0                       # Class of executed instruction
system.cpu.op_class::SimdReduceAlu                  0                       # Class of executed instruction
system.cpu.op_class::SimdReduceCmp                  0                       # Class of executed instruction
system.cpu.op_class::SimdFloatReduceAdd             0                       # Class of executed instruction
system.cpu.op_class::SimdFloatReduceCmp             0                       # Class of executed instruction
system.cpu.op_class::SimdAes                        0                       # Class of executed instruction
system.cpu.op_class::SimdAesMix                     0                       # Class of executed instruction
system.cpu.op_class::SimdSha1Hash                   0                       # Class of executed instruction
system.cpu.op_class::SimdSha1Hash2                  0                       # Class of executed instruction
system.cpu.op_class::SimdSha256Hash                 0                       # Class of executed instruction
system.cpu.op_class::SimdSha256Hash2                0                       # Class of executed instruction
system.cpu.op_class::SimdShaSigma2                  0                       # Class of executed instruction
system.cpu.op_class::SimdShaSigma3                  0                       # Class of executed instruction
system.cpu.op_class::SimdPredAlu                    0                       # Class of executed instruction
system.cpu.op_class::MemRead                        0                       # Class of executed instruction
system.cpu.op_class::MemWrite                       0                       # Class of executed instruction
system.cpu.op_class::FloatMemRead                   0                       # Class of executed instruction
system.cpu.op_class::FloatMemWrite                  0                       # Class of executed instruction
system.cpu.op_class::IprAccess                      0                       # Class of executed instruction
system.cpu.op_class::InstPrefetch                   0                       # Class of executed instruction
system.cpu.op_class::total                          0                       # Class of executed instruction
system.cpu.workload.numSyscalls                   505                       # Number of system calls
system.membus.snoop_filter.hit_multi_requests            0                       # Number of requests hitting in the snoop filter with multiple (>1) holders of the requested data.
system.membus.snoop_filter.hit_multi_snoops            0                       # Number of snoops hitting in the snoop filter with multiple (>1) holders of the requested data.
system.membus.snoop_filter.hit_single_requests      1052138                       # Number of requests hitting in the snoop filter with a single holder of the requested data.
system.membus.snoop_filter.hit_single_snoops            0                       # Number of snoops hitting in the snoop filter with a single holder of the requested data.
system.membus.snoop_filter.tot_requests       2103922                       # Total number of requests made to the snoop filter.
system.membus.snoop_filter.tot_snoops               0                       # Total number of snoops made to the snoop filter.
system.switch_cpus.committedInsts                   0                       # Number of instructions committed
system.switch_cpus.committedOps                     0                       # Number of ops (including micro ops) committed
system.switch_cpus.dtb.rdAccesses                   0                       # TLB accesses on read requests
system.switch_cpus.dtb.rdMisses                     0                       # TLB misses on read requests
system.switch_cpus.dtb.wrAccesses                   0                       # TLB accesses on write requests
system.switch_cpus.dtb.wrMisses                     0                       # TLB misses on write requests
system.switch_cpus.idle_fraction                    0                       # Percentage of idle cycles
system.switch_cpus.itb.rdAccesses                   0                       # TLB accesses on read requests
system.switch_cpus.itb.rdMisses                     0                       # TLB misses on read requests
system.switch_cpus.itb.wrAccesses                   0                       # TLB accesses on write requests
system.switch_cpus.itb.wrMisses                     0                       # TLB misses on write requests
system.switch_cpus.not_idle_fraction                1                       # Percentage of non-idle cycles
system.switch_cpus.numCycles                        0                       # number of cpu cycles simulated
system.switch_cpus.numWorkItemsCompleted            0                       # number of work items this cpu completed
system.switch_cpus.numWorkItemsStarted              0                       # number of work items this cpu started
system.switch_cpus.num_busy_cycles                  0                       # Number of busy cycles
system.switch_cpus.num_conditional_control_insts            0                       # number of instructions that are conditional controls
system.switch_cpus.num_fp_alu_accesses              0                       # Number of float alu accesses
system.switch_cpus.num_fp_insts                     0                       # number of float instructions
system.switch_cpus.num_fp_register_reads            0                       # number of times the floating registers were read
system.switch_cpus.num_fp_register_writes            0                       # number of times the floating registers were written
system.switch_cpus.num_func_calls                   0                       # number of times a function call or return occured
system.switch_cpus.num_idle_cycles                  0                       # Number of idle cycles
system.switch_cpus.num_int_alu_accesses             0                       # Number of integer alu accesses
system.switch_cpus.num_int_insts                    0                       # number of integer instructions
system.switch_cpus.num_int_register_reads            0                       # number of times the integer registers were read
system.switch_cpus.num_int_register_writes            0                       # number of times the integer registers were written
system.switch_cpus.num_load_insts                   0                       # Number of load instructions
system.switch_cpus.num_mem_refs                     0                       # number of memory refs
system.switch_cpus.num_store_insts                  0                       # Number of store instructions
system.switch_cpus.num_vec_alu_accesses             0                       # Number of vector alu accesses
system.switch_cpus.num_vec_insts                    0                       # number of vector instructions
system.switch_cpus.num_vec_register_reads            0                       # number of times the vector registers were read
system.switch_cpus.num_vec_register_writes            0                       # number of times the vector registers were written
system.switch_cpus.op_class::No_OpClass             0                       # Class of executed instruction
system.switch_cpus.op_class::IntAlu                 0                       # Class of executed instruction
system.switch_cpus.op_class::IntMult                0                       # Class of executed instruction
system.switch_cpus.op_class::IntDiv                 0                       # Class of executed instruction
system.switch_cpus.op_class::FloatAdd               0                       # Class of executed instruction
system.switch_cpus.op_class::FloatCmp               0                       # Class of executed instruction
system.switch_cpus.op_class::FloatCvt               0                       # Class of executed instruction
system.switch_cpus.op_class::FloatMult              0                       # Class of executed instruction
system.switch_cpus.op_class::FloatMultAcc            0                       # Class of executed instruction
system.switch_cpus.op_class::FloatDiv               0                       # Class of executed instruction
system.switch_cpus.op_class::FloatMisc              0                       # Class of executed instruction
system.switch_cpus.op_class::FloatSqrt              0                       # Class of executed instruction
system.switch_cpus.op_class::SimdAdd                0                       # Class of executed instruction
system.switch_cpus.op_class::SimdAddAcc             0                       # Class of executed instruction
system.switch_cpus.op_class::SimdAlu                0                       # Class of executed instruction
system.switch_cpus.op_class::SimdCmp                0                       # Class of executed instruction
system.switch_cpus.op_class::SimdCvt                0                       # Class of executed instruction
system.switch_cpus.op_class::SimdMisc               0                       # Class of executed instruction
system.switch_cpus.op_class::SimdMult               0                       # Class of executed instruction
system.switch_cpus.op_class::SimdMultAcc            0                       # Class of executed instruction
system.switch_cpus.op_class::SimdShift              0                       # Class of executed instruction
system.switch_cpus.op_class::SimdShiftAcc            0                       # Class of executed instruction
system.switch_cpus.op_class::SimdDiv                0                       # Class of executed instruction
system.switch_cpus.op_class::SimdSqrt               0                       # Class of executed instruction
system.switch_cpus.op_class::SimdFloatAdd            0                       # Class of executed instruction
system.switch_cpus.op_class::SimdFloatAlu            0                       # Class of executed instruction
system.switch_cpus.op_class::SimdFloatCmp            0                       # Class of executed instruction
system.switch_cpus.op_class::SimdFloatCvt            0                       # Class of executed instruction
system.switch_cpus.op_class::SimdFloatDiv            0                       # Class of executed instruction
system.switch_cpus.op_class::SimdFloatMisc            0                       # Class of executed instruction
system.switch_cpus.op_class::SimdFloatMult            0                       # Class of executed instruction
system.switch_cpus.op_class::SimdFloatMultAcc            0                       # Class of executed instruction
system.switch_cpus.op_class::SimdFloatSqrt            0                       # Class of executed instruction
system.switch_cpus.op_class::SimdReduceAdd            0                       # Class of executed instruction
system.switch_cpus.op_class::SimdReduceAlu            0                       # Class of executed instruction
system.switch_cpus.op_class::SimdReduceCmp            0                       # Class of executed instruction
system.switch_cpus.op_class::SimdFloatReduceAdd            0                       # Class of executed instruction
system.switch_cpus.op_class::SimdFloatReduceCmp            0                       # Class of executed instruction
system.switch_cpus.op_class::SimdAes                0                       # Class of executed instruction
system.switch_cpus.op_class::SimdAesMix             0                       # Class of executed instruction
system.switch_cpus.op_class::SimdSha1Hash            0                       # Class of executed instruction
system.switch_cpus.op_class::SimdSha1Hash2            0                       # Class of executed instruction
system.switch_cpus.op_class::SimdSha256Hash            0                       # Class of executed instruction
system.switch_cpus.op_class::SimdSha256Hash2            0                       # Class of executed instruction
system.switch_cpus.op_class::SimdShaSigma2            0                       # Class of executed instruction
system.switch_cpus.op_class::SimdShaSigma3            0                       # Class of executed instruction
system.switch_cpus.op_class::SimdPredAlu            0                       # Class of executed instruction
system.switch_cpus.op_class::MemRead                0                       # Class of executed instruction
system.switch_cpus.op_class::MemWrite               0                       # Class of executed instruction
system.switch_cpus.op_class::FloatMemRead            0                       # Class of executed instruction
system.switch_cpus.op_class::FloatMemWrite            0                       # Class of executed instruction
system.switch_cpus.op_class::IprAccess              0                       # Class of executed instruction
system.switch_cpus.op_class::InstPrefetch            0                       # Class of executed instruction
system.switch_cpus.op_class::total                  0                       # Class of executed instruction
system.switch_cpus_1.branchPred.BTBCorrect            0                       # Number of correct BTB predictions (this stat may not work properly.
system.switch_cpus_1.branchPred.BTBHitPct          nan                       # BTB Hit Percentage
system.switch_cpus_1.branchPred.BTBHits             0                       # Number of BTB hits
system.switch_cpus_1.branchPred.BTBLookups            0                       # Number of BTB lookups
system.switch_cpus_1.branchPred.RASInCorrect          122                       # Number of incorrect RAS predictions.
system.switch_cpus_1.branchPred.condIncorrect     11467335                       # Number of conditional branches incorrect
system.switch_cpus_1.branchPred.condPredicted    217717628                       # Number of conditional branches predicted
system.switch_cpus_1.branchPred.indirectHits    101283579                       # Number of indirect target hits.
system.switch_cpus_1.branchPred.indirectLookups    124444526                       # Number of indirect predictor lookups.
system.switch_cpus_1.branchPred.indirectMisses     23160947                       # Number of indirect misses.
system.switch_cpus_1.branchPred.lookups     243201257                       # Number of BP lookups
system.switch_cpus_1.branchPred.usedRAS      12354079                       # Number of times the RAS was used to get a target.
system.switch_cpus_1.branchPredindirectMispredicted      7702614                       # Number of mispredicted indirect branches.
system.switch_cpus_1.cc_regfile_reads      1018920810                       # number of cc regfile reads
system.switch_cpus_1.cc_regfile_writes      588318122                       # number of cc regfile writes
system.switch_cpus_1.commit.amos                    0                       # Number of atomic instructions committed
system.switch_cpus_1.commit.branchMispredicts     11468230                       # The number of times a branch was mispredicted
system.switch_cpus_1.commit.branches        186020294                       # Number of branches committed
system.switch_cpus_1.commit.bw_lim_events    126459180                       # number cycles where commit BW limit reached
system.switch_cpus_1.commit.commitNonSpecStalls          778                       # The number of times commit has been forced to stall to communicate backwards
system.switch_cpus_1.commit.commitSquashedInsts    390813313                       # The number of squashed insts skipped by commit
system.switch_cpus_1.commit.committedInsts   1000000002                       # Number of instructions committed
system.switch_cpus_1.commit.committedOps   1913177502                       # Number of ops (including micro ops) committed
system.switch_cpus_1.commit.committed_per_cycle::samples    718076876                       # Number of insts commited each cycle
system.switch_cpus_1.commit.committed_per_cycle::mean     2.664307                       # Number of insts commited each cycle
system.switch_cpus_1.commit.committed_per_cycle::stdev     2.980285                       # Number of insts commited each cycle
system.switch_cpus_1.commit.committed_per_cycle::underflows            0      0.00%      0.00% # Number of insts commited each cycle
system.switch_cpus_1.commit.committed_per_cycle::0    259820554     36.18%     36.18% # Number of insts commited each cycle
system.switch_cpus_1.commit.committed_per_cycle::1    104248249     14.52%     50.70% # Number of insts commited each cycle
system.switch_cpus_1.commit.committed_per_cycle::2     64118699      8.93%     59.63% # Number of insts commited each cycle
system.switch_cpus_1.commit.committed_per_cycle::3     78619220     10.95%     70.58% # Number of insts commited each cycle
system.switch_cpus_1.commit.committed_per_cycle::4     32963964      4.59%     75.17% # Number of insts commited each cycle
system.switch_cpus_1.commit.committed_per_cycle::5     23413453      3.26%     78.43% # Number of insts commited each cycle
system.switch_cpus_1.commit.committed_per_cycle::6     14797265      2.06%     80.49% # Number of insts commited each cycle
system.switch_cpus_1.commit.committed_per_cycle::7     13636292      1.90%     82.39% # Number of insts commited each cycle
system.switch_cpus_1.commit.committed_per_cycle::8    126459180     17.61%    100.00% # Number of insts commited each cycle
system.switch_cpus_1.commit.committed_per_cycle::overflows            0      0.00%    100.00% # Number of insts commited each cycle
system.switch_cpus_1.commit.committed_per_cycle::min_value            0                       # Number of insts commited each cycle
system.switch_cpus_1.commit.committed_per_cycle::max_value            8                       # Number of insts commited each cycle
system.switch_cpus_1.commit.committed_per_cycle::total    718076876                       # Number of insts commited each cycle
system.switch_cpus_1.commit.fp_insts        342164187                       # Number of committed floating point instructions.
system.switch_cpus_1.commit.function_calls      9247180                       # Number of function calls committed.
system.switch_cpus_1.commit.int_insts      1644843534                       # Number of committed integer instructions.
system.switch_cpus_1.commit.loads           234446740                       # Number of loads committed
system.switch_cpus_1.commit.membars               140                       # Number of memory barriers committed
system.switch_cpus_1.commit.op_class_0::No_OpClass      5783847      0.30%      0.30% # Class of committed instruction
system.switch_cpus_1.commit.op_class_0::IntAlu   1346449029     70.38%     70.68% # Class of committed instruction
system.switch_cpus_1.commit.op_class_0::IntMult      1181117      0.06%     70.74% # Class of committed instruction
system.switch_cpus_1.commit.op_class_0::IntDiv      5794698      0.30%     71.04% # Class of committed instruction
system.switch_cpus_1.commit.op_class_0::FloatAdd     46866852      2.45%     73.49% # Class of committed instruction
system.switch_cpus_1.commit.op_class_0::FloatCmp            0      0.00%     73.49% # Class of committed instruction
system.switch_cpus_1.commit.op_class_0::FloatCvt          112      0.00%     73.49% # Class of committed instruction
system.switch_cpus_1.commit.op_class_0::FloatMult            0      0.00%     73.49% # Class of committed instruction
system.switch_cpus_1.commit.op_class_0::FloatMultAcc            0      0.00%     73.49% # Class of committed instruction
system.switch_cpus_1.commit.op_class_0::FloatDiv            0      0.00%     73.49% # Class of committed instruction
system.switch_cpus_1.commit.op_class_0::FloatMisc            0      0.00%     73.49% # Class of committed instruction
system.switch_cpus_1.commit.op_class_0::FloatSqrt            0      0.00%     73.49% # Class of committed instruction
system.switch_cpus_1.commit.op_class_0::SimdAdd            0      0.00%     73.49% # Class of committed instruction
system.switch_cpus_1.commit.op_class_0::SimdAddAcc            0      0.00%     73.49% # Class of committed instruction
system.switch_cpus_1.commit.op_class_0::SimdAlu     22244818      1.16%     74.66% # Class of committed instruction
system.switch_cpus_1.commit.op_class_0::SimdCmp       687450      0.04%     74.69% # Class of committed instruction
system.switch_cpus_1.commit.op_class_0::SimdCvt      4362488      0.23%     74.92% # Class of committed instruction
system.switch_cpus_1.commit.op_class_0::SimdMisc     12842429      0.67%     75.59% # Class of committed instruction
system.switch_cpus_1.commit.op_class_0::SimdMult            0      0.00%     75.59% # Class of committed instruction
system.switch_cpus_1.commit.op_class_0::SimdMultAcc            0      0.00%     75.59% # Class of committed instruction
system.switch_cpus_1.commit.op_class_0::SimdShift            0      0.00%     75.59% # Class of committed instruction
system.switch_cpus_1.commit.op_class_0::SimdShiftAcc            0      0.00%     75.59% # Class of committed instruction
system.switch_cpus_1.commit.op_class_0::SimdDiv            0      0.00%     75.59% # Class of committed instruction
system.switch_cpus_1.commit.op_class_0::SimdSqrt            0      0.00%     75.59% # Class of committed instruction
system.switch_cpus_1.commit.op_class_0::SimdFloatAdd     49159879      2.57%     78.16% # Class of committed instruction
system.switch_cpus_1.commit.op_class_0::SimdFloatAlu            0      0.00%     78.16% # Class of committed instruction
system.switch_cpus_1.commit.op_class_0::SimdFloatCmp            0      0.00%     78.16% # Class of committed instruction
system.switch_cpus_1.commit.op_class_0::SimdFloatCvt     45731328      2.39%     80.55% # Class of committed instruction
system.switch_cpus_1.commit.op_class_0::SimdFloatDiv      1922135      0.10%     80.65% # Class of committed instruction
system.switch_cpus_1.commit.op_class_0::SimdFloatMisc            0      0.00%     80.65% # Class of committed instruction
system.switch_cpus_1.commit.op_class_0::SimdFloatMult     22831089      1.19%     81.85% # Class of committed instruction
system.switch_cpus_1.commit.op_class_0::SimdFloatMultAcc            0      0.00%     81.85% # Class of committed instruction
system.switch_cpus_1.commit.op_class_0::SimdFloatSqrt            0      0.00%     81.85% # Class of committed instruction
system.switch_cpus_1.commit.op_class_0::SimdReduceAdd            0      0.00%     81.85% # Class of committed instruction
system.switch_cpus_1.commit.op_class_0::SimdReduceAlu            0      0.00%     81.85% # Class of committed instruction
system.switch_cpus_1.commit.op_class_0::SimdReduceCmp            0      0.00%     81.85% # Class of committed instruction
system.switch_cpus_1.commit.op_class_0::SimdFloatReduceAdd            0      0.00%     81.85% # Class of committed instruction
system.switch_cpus_1.commit.op_class_0::SimdFloatReduceCmp            0      0.00%     81.85% # Class of committed instruction
system.switch_cpus_1.commit.op_class_0::SimdAes            0      0.00%     81.85% # Class of committed instruction
system.switch_cpus_1.commit.op_class_0::SimdAesMix            0      0.00%     81.85% # Class of committed instruction
system.switch_cpus_1.commit.op_class_0::SimdSha1Hash            0      0.00%     81.85% # Class of committed instruction
system.switch_cpus_1.commit.op_class_0::SimdSha1Hash2            0      0.00%     81.85% # Class of committed instruction
system.switch_cpus_1.commit.op_class_0::SimdSha256Hash            0      0.00%     81.85% # Class of committed instruction
system.switch_cpus_1.commit.op_class_0::SimdSha256Hash2            0      0.00%     81.85% # Class of committed instruction
system.switch_cpus_1.commit.op_class_0::SimdShaSigma2            0      0.00%     81.85% # Class of committed instruction
system.switch_cpus_1.commit.op_class_0::SimdShaSigma3            0      0.00%     81.85% # Class of committed instruction
system.switch_cpus_1.commit.op_class_0::SimdPredAlu            0      0.00%     81.85% # Class of committed instruction
system.switch_cpus_1.commit.op_class_0::MemRead    174644765      9.13%     90.97% # Class of committed instruction
system.switch_cpus_1.commit.op_class_0::MemWrite    102526781      5.36%     96.33% # Class of committed instruction
system.switch_cpus_1.commit.op_class_0::FloatMemRead     59801975      3.13%     99.46% # Class of committed instruction
system.switch_cpus_1.commit.op_class_0::FloatMemWrite     10346710      0.54%    100.00% # Class of committed instruction
system.switch_cpus_1.commit.op_class_0::IprAccess            0      0.00%    100.00% # Class of committed instruction
system.switch_cpus_1.commit.op_class_0::InstPrefetch            0      0.00%    100.00% # Class of committed instruction
system.switch_cpus_1.commit.op_class_0::total   1913177502                       # Class of committed instruction
system.switch_cpus_1.commit.refs            347320231                       # Number of memory references committed
system.switch_cpus_1.commit.swp_count               0                       # Number of s/w prefetches committed
system.switch_cpus_1.commit.vec_insts               0                       # Number of committed Vector instructions.
system.switch_cpus_1.committedInsts        1000000002                       # Number of Instructions Simulated
system.switch_cpus_1.committedOps          1913177502                       # Number of Ops (including micro ops) Simulated
system.switch_cpus_1.cpi                     0.774660                       # CPI: Cycles Per Instruction
system.switch_cpus_1.cpi_total               0.774660                       # CPI: Total CPI of All Threads
system.switch_cpus_1.decode.BlockedCycles    187981871                       # Number of cycles decode is blocked
system.switch_cpus_1.decode.DecodedInsts   2468239428                       # Number of instructions handled by decode
system.switch_cpus_1.decode.IdleCycles      189324915                       # Number of cycles decode is idle
system.switch_cpus_1.decode.RunCycles       366612495                       # Number of cycles decode is running
system.switch_cpus_1.decode.SquashCycles     11480116                       # Number of cycles decode is squashing
system.switch_cpus_1.decode.UnblockCycles     18788354                       # Number of cycles decode is unblocking
system.switch_cpus_1.dtb.rdAccesses         260215642                       # TLB accesses on read requests
system.switch_cpus_1.dtb.rdMisses              967750                       # TLB misses on read requests
system.switch_cpus_1.dtb.wrAccesses         121880073                       # TLB accesses on write requests
system.switch_cpus_1.dtb.wrMisses              189088                       # TLB misses on write requests
system.switch_cpus_1.fetch.Branches         243201257                       # Number of branches that fetch encountered
system.switch_cpus_1.fetch.CacheLines       193020597                       # Number of cache lines fetched
system.switch_cpus_1.fetch.Cycles           556818659                       # Number of cycles fetch has run and was not squashing or blocked
system.switch_cpus_1.fetch.IcacheSquashes      3331738                       # Number of outstanding Icache misses that were squashed
system.switch_cpus_1.fetch.IcacheWaitRetryStallCycles          305                       # Number of stall cycles due to full MSHR
system.switch_cpus_1.fetch.Insts           1329648489                       # Number of instructions fetch has processed
system.switch_cpus_1.fetch.MiscStallCycles         2015                       # Number of cycles fetch has spent waiting on interrupts, or bad addresses, or out of MSHRs
system.switch_cpus_1.fetch.PendingTrapStallCycles        10199                       # Number of stall cycles due to pending traps
system.switch_cpus_1.fetch.SquashCycles      22960232                       # Number of cycles fetch has spent squashing
system.switch_cpus_1.fetch.TlbCycles                6                       # Number of cycles fetch has spent waiting for tlb
system.switch_cpus_1.fetch.branchRate        0.313946                       # Number of branch fetches per cycle
system.switch_cpus_1.fetch.icacheStallCycles    205876453                       # Number of cycles fetch is stalled on an Icache miss
system.switch_cpus_1.fetch.predictedBranches    113637658                       # Number of branches that fetch has predicted taken
system.switch_cpus_1.fetch.rate              1.716429                       # Number of inst fetches per cycle
system.switch_cpus_1.fetch.rateDist::samples    774187753                       # Number of instructions fetched each cycle (Total)
system.switch_cpus_1.fetch.rateDist::mean     3.274499                       # Number of instructions fetched each cycle (Total)
system.switch_cpus_1.fetch.rateDist::stdev     3.543465                       # Number of instructions fetched each cycle (Total)
system.switch_cpus_1.fetch.rateDist::underflows            0      0.00%      0.00% # Number of instructions fetched each cycle (Total)
system.switch_cpus_1.fetch.rateDist::0      360442386     46.56%     46.56% # Number of instructions fetched each cycle (Total)
system.switch_cpus_1.fetch.rateDist::1       29045783      3.75%     50.31% # Number of instructions fetched each cycle (Total)
system.switch_cpus_1.fetch.rateDist::2       25742310      3.33%     53.63% # Number of instructions fetched each cycle (Total)
system.switch_cpus_1.fetch.rateDist::3       34056575      4.40%     58.03% # Number of instructions fetched each cycle (Total)
system.switch_cpus_1.fetch.rateDist::4       20304345      2.62%     60.66% # Number of instructions fetched each cycle (Total)
system.switch_cpus_1.fetch.rateDist::5       33382290      4.31%     64.97% # Number of instructions fetched each cycle (Total)
system.switch_cpus_1.fetch.rateDist::6       24116563      3.12%     68.08% # Number of instructions fetched each cycle (Total)
system.switch_cpus_1.fetch.rateDist::7       17231247      2.23%     70.31% # Number of instructions fetched each cycle (Total)
system.switch_cpus_1.fetch.rateDist::8      229866254     29.69%    100.00% # Number of instructions fetched each cycle (Total)
system.switch_cpus_1.fetch.rateDist::overflows            0      0.00%    100.00% # Number of instructions fetched each cycle (Total)
system.switch_cpus_1.fetch.rateDist::min_value            0                       # Number of instructions fetched each cycle (Total)
system.switch_cpus_1.fetch.rateDist::max_value            8                       # Number of instructions fetched each cycle (Total)
system.switch_cpus_1.fetch.rateDist::total    774187753                       # Number of instructions fetched each cycle (Total)
system.switch_cpus_1.fp_regfile_reads       588512412                       # number of floating regfile reads
system.switch_cpus_1.fp_regfile_writes      342225757                       # number of floating regfile writes
system.switch_cpus_1.idleCycles                471908                       # Total number of cycles that the CPU has spent unscheduled due to idling
system.switch_cpus_1.iew.branchMispredicts     14421201                       # Number of branch mispredicts detected at execute
system.switch_cpus_1.iew.exec_branches      201942121                       # Number of branches executed
system.switch_cpus_1.iew.exec_nop                   0                       # number of nop insts executed
system.switch_cpus_1.iew.exec_rate           2.755098                       # Inst execution rate
system.switch_cpus_1.iew.exec_refs          382663139                       # number of memory reference insts executed
system.switch_cpus_1.iew.exec_stores        121827090                       # Number of stores executed
system.switch_cpus_1.iew.exec_swp                   0                       # number of swp insts executed
system.switch_cpus_1.iew.iewBlockCycles      95965735                       # Number of cycles IEW is blocking
system.switch_cpus_1.iew.iewDispLoadInsts    279434012                       # Number of dispatched load instructions
system.switch_cpus_1.iew.iewDispNonSpecInsts       105641                       # Number of dispatched non-speculative instructions
system.switch_cpus_1.iew.iewDispSquashedInsts       919933                       # Number of squashed instructions skipped by dispatch
system.switch_cpus_1.iew.iewDispStoreInsts    132673156                       # Number of dispatched store instructions
system.switch_cpus_1.iew.iewDispatchedInsts   2304070958                       # Number of instructions dispatched to IQ
system.switch_cpus_1.iew.iewExecLoadInsts    260836049                       # Number of load instructions executed
system.switch_cpus_1.iew.iewExecSquashedInsts     29017533                       # Number of squashed instructions skipped in execute
system.switch_cpus_1.iew.iewExecutedInsts   2134262907                       # Number of executed instructions
system.switch_cpus_1.iew.iewIQFullEvents       720988                       # Number of times the IQ has become full, causing a stall
system.switch_cpus_1.iew.iewIdleCycles              0                       # Number of cycles IEW is idle
system.switch_cpus_1.iew.iewLSQFullEvents     17226647                       # Number of times the LSQ has become full, causing a stall
system.switch_cpus_1.iew.iewSquashCycles     11480116                       # Number of cycles IEW is squashing
system.switch_cpus_1.iew.iewUnblockCycles     18209708                       # Number of cycles IEW is unblocking
system.switch_cpus_1.iew.lsq.thread0.blockedLoads            0                       # Number of blocked loads due to partial load-store forwarding
system.switch_cpus_1.iew.lsq.thread0.cacheBlocked       183299                       # Number of times an access to memory failed due to the cache being blocked
system.switch_cpus_1.iew.lsq.thread0.forwLoads     28050455                       # Number of loads that had data forwarded from stores
system.switch_cpus_1.iew.lsq.thread0.ignoredResponses       158084                       # Number of memory responses ignored because the instruction is squashed
system.switch_cpus_1.iew.lsq.thread0.invAddrLoads            0                       # Number of loads ignored due to an invalid address
system.switch_cpus_1.iew.lsq.thread0.invAddrSwpfs            0                       # Number of software prefetches ignored due to an invalid address
system.switch_cpus_1.iew.lsq.thread0.memOrderViolation        28463                       # Number of memory ordering violations
system.switch_cpus_1.iew.lsq.thread0.rescheduledLoads        84124                       # Number of loads that were rescheduled
system.switch_cpus_1.iew.lsq.thread0.squashedLoads     44987266                       # Number of loads squashed
system.switch_cpus_1.iew.lsq.thread0.squashedStores     19799662                       # Number of stores squashed
system.switch_cpus_1.iew.memOrderViolationEvents        28463                       # Number of memory order violations
system.switch_cpus_1.iew.predictedNotTakenIncorrect     12801315                       # Number of branches that were predicted not taken incorrectly
system.switch_cpus_1.iew.predictedTakenIncorrect      1619886                       # Number of branches that were predicted taken incorrectly
system.switch_cpus_1.iew.wb_consumers      2526438239                       # num instructions consuming a value
system.switch_cpus_1.iew.wb_count          2123571145                       # cumulative count of insts written-back
system.switch_cpus_1.iew.wb_fanout           0.619578                       # average fanout of values written-back
system.switch_cpus_1.iew.wb_producers      1565326206                       # num instructions producing a value
system.switch_cpus_1.iew.wb_rate             2.741296                       # insts written-back per cycle
system.switch_cpus_1.iew.wb_sent           2128456832                       # cumulative count of insts sent to commit
system.switch_cpus_1.int_regfile_reads     2645324969                       # number of integer regfile reads
system.switch_cpus_1.int_regfile_writes    1439956961                       # number of integer regfile writes
system.switch_cpus_1.ipc                     1.290889                       # IPC: Instructions Per Cycle
system.switch_cpus_1.ipc_total               1.290889                       # IPC: Total IPC of All Threads
system.switch_cpus_1.iq.FU_type_0::No_OpClass     10047898      0.46%      0.46% # Type of FU issued
system.switch_cpus_1.iq.FU_type_0::IntAlu   1525341080     70.51%     70.98% # Type of FU issued
system.switch_cpus_1.iq.FU_type_0::IntMult      1232648      0.06%     71.03% # Type of FU issued
system.switch_cpus_1.iq.FU_type_0::IntDiv      5962627      0.28%     71.31% # Type of FU issued
system.switch_cpus_1.iq.FU_type_0::FloatAdd     55212885      2.55%     73.86% # Type of FU issued
system.switch_cpus_1.iq.FU_type_0::FloatCmp            0      0.00%     73.86% # Type of FU issued
system.switch_cpus_1.iq.FU_type_0::FloatCvt          588      0.00%     73.86% # Type of FU issued
system.switch_cpus_1.iq.FU_type_0::FloatMult            0      0.00%     73.86% # Type of FU issued
system.switch_cpus_1.iq.FU_type_0::FloatMultAcc            0      0.00%     73.86% # Type of FU issued
system.switch_cpus_1.iq.FU_type_0::FloatDiv            0      0.00%     73.86% # Type of FU issued
system.switch_cpus_1.iq.FU_type_0::FloatMisc            0      0.00%     73.86% # Type of FU issued
system.switch_cpus_1.iq.FU_type_0::FloatSqrt            0      0.00%     73.86% # Type of FU issued
system.switch_cpus_1.iq.FU_type_0::SimdAdd            0      0.00%     73.86% # Type of FU issued
system.switch_cpus_1.iq.FU_type_0::SimdAddAcc            0      0.00%     73.86% # Type of FU issued
system.switch_cpus_1.iq.FU_type_0::SimdAlu     25096020      1.16%     75.02% # Type of FU issued
system.switch_cpus_1.iq.FU_type_0::SimdCmp       692821      0.03%     75.05% # Type of FU issued
system.switch_cpus_1.iq.FU_type_0::SimdCvt      5285926      0.24%     75.30% # Type of FU issued
system.switch_cpus_1.iq.FU_type_0::SimdMisc     14787587      0.68%     75.98% # Type of FU issued
system.switch_cpus_1.iq.FU_type_0::SimdMult            0      0.00%     75.98% # Type of FU issued
system.switch_cpus_1.iq.FU_type_0::SimdMultAcc            0      0.00%     75.98% # Type of FU issued
system.switch_cpus_1.iq.FU_type_0::SimdShift            0      0.00%     75.98% # Type of FU issued
system.switch_cpus_1.iq.FU_type_0::SimdShiftAcc            0      0.00%     75.98% # Type of FU issued
system.switch_cpus_1.iq.FU_type_0::SimdDiv            0      0.00%     75.98% # Type of FU issued
system.switch_cpus_1.iq.FU_type_0::SimdSqrt            0      0.00%     75.98% # Type of FU issued
system.switch_cpus_1.iq.FU_type_0::SimdFloatAdd     54267668      2.51%     78.49% # Type of FU issued
system.switch_cpus_1.iq.FU_type_0::SimdFloatAlu            0      0.00%     78.49% # Type of FU issued
system.switch_cpus_1.iq.FU_type_0::SimdFloatCmp            0      0.00%     78.49% # Type of FU issued
system.switch_cpus_1.iq.FU_type_0::SimdFloatCvt     49781090      2.30%     80.79% # Type of FU issued
system.switch_cpus_1.iq.FU_type_0::SimdFloatDiv      1924984      0.09%     80.88% # Type of FU issued
system.switch_cpus_1.iq.FU_type_0::SimdFloatMisc            0      0.00%     80.88% # Type of FU issued
system.switch_cpus_1.iq.FU_type_0::SimdFloatMult     23645632      1.09%     81.97% # Type of FU issued
system.switch_cpus_1.iq.FU_type_0::SimdFloatMultAcc            0      0.00%     81.97% # Type of FU issued
system.switch_cpus_1.iq.FU_type_0::SimdFloatSqrt            0      0.00%     81.97% # Type of FU issued
system.switch_cpus_1.iq.FU_type_0::SimdReduceAdd            0      0.00%     81.97% # Type of FU issued
system.switch_cpus_1.iq.FU_type_0::SimdReduceAlu            0      0.00%     81.97% # Type of FU issued
system.switch_cpus_1.iq.FU_type_0::SimdReduceCmp            0      0.00%     81.97% # Type of FU issued
system.switch_cpus_1.iq.FU_type_0::SimdFloatReduceAdd            0      0.00%     81.97% # Type of FU issued
system.switch_cpus_1.iq.FU_type_0::SimdFloatReduceCmp            0      0.00%     81.97% # Type of FU issued
system.switch_cpus_1.iq.FU_type_0::SimdAes            0      0.00%     81.97% # Type of FU issued
system.switch_cpus_1.iq.FU_type_0::SimdAesMix            0      0.00%     81.97% # Type of FU issued
system.switch_cpus_1.iq.FU_type_0::SimdSha1Hash            0      0.00%     81.97% # Type of FU issued
system.switch_cpus_1.iq.FU_type_0::SimdSha1Hash2            0      0.00%     81.97% # Type of FU issued
system.switch_cpus_1.iq.FU_type_0::SimdSha256Hash            0      0.00%     81.97% # Type of FU issued
system.switch_cpus_1.iq.FU_type_0::SimdSha256Hash2            0      0.00%     81.97% # Type of FU issued
system.switch_cpus_1.iq.FU_type_0::SimdShaSigma2            0      0.00%     81.97% # Type of FU issued
system.switch_cpus_1.iq.FU_type_0::SimdShaSigma3            0      0.00%     81.97% # Type of FU issued
system.switch_cpus_1.iq.FU_type_0::SimdPredAlu            0      0.00%     81.97% # Type of FU issued
system.switch_cpus_1.iq.FU_type_0::MemRead    195177155      9.02%     90.99% # Type of FU issued
system.switch_cpus_1.iq.FU_type_0::MemWrite    111652740      5.16%     96.16% # Type of FU issued
system.switch_cpus_1.iq.FU_type_0::FloatMemRead     70276531      3.25%     99.40% # Type of FU issued
system.switch_cpus_1.iq.FU_type_0::FloatMemWrite     12894568      0.60%    100.00% # Type of FU issued
system.switch_cpus_1.iq.FU_type_0::IprAccess            0      0.00%    100.00% # Type of FU issued
system.switch_cpus_1.iq.FU_type_0::InstPrefetch            0      0.00%    100.00% # Type of FU issued
system.switch_cpus_1.iq.FU_type_0::total   2163280448                       # Type of FU issued
system.switch_cpus_1.iq.fp_alu_accesses     394740022                       # Number of floating point alu accesses
system.switch_cpus_1.iq.fp_inst_queue_reads    787853323                       # Number of floating instruction queue reads
system.switch_cpus_1.iq.fp_inst_queue_wakeup_accesses    385490843                       # Number of floating instruction queue wakeup accesses
system.switch_cpus_1.iq.fp_inst_queue_writes    514344861                       # Number of floating instruction queue writes
system.switch_cpus_1.iq.fu_busy_cnt          25730153                       # FU busy when requested
system.switch_cpus_1.iq.fu_busy_rate         0.011894                       # FU busy rate (busy events/executed inst)
system.switch_cpus_1.iq.fu_full::No_OpClass            0      0.00%      0.00% # attempts to use FU when none available
system.switch_cpus_1.iq.fu_full::IntAlu      21835506     84.86%     84.86% # attempts to use FU when none available
system.switch_cpus_1.iq.fu_full::IntMult            0      0.00%     84.86% # attempts to use FU when none available
system.switch_cpus_1.iq.fu_full::IntDiv             0      0.00%     84.86% # attempts to use FU when none available
system.switch_cpus_1.iq.fu_full::FloatAdd            0      0.00%     84.86% # attempts to use FU when none available
system.switch_cpus_1.iq.fu_full::FloatCmp            0      0.00%     84.86% # attempts to use FU when none available
system.switch_cpus_1.iq.fu_full::FloatCvt            1      0.00%     84.86% # attempts to use FU when none available
system.switch_cpus_1.iq.fu_full::FloatMult            0      0.00%     84.86% # attempts to use FU when none available
system.switch_cpus_1.iq.fu_full::FloatMultAcc            0      0.00%     84.86% # attempts to use FU when none available
system.switch_cpus_1.iq.fu_full::FloatDiv            0      0.00%     84.86% # attempts to use FU when none available
system.switch_cpus_1.iq.fu_full::FloatMisc            0      0.00%     84.86% # attempts to use FU when none available
system.switch_cpus_1.iq.fu_full::FloatSqrt            0      0.00%     84.86% # attempts to use FU when none available
system.switch_cpus_1.iq.fu_full::SimdAdd            0      0.00%     84.86% # attempts to use FU when none available
system.switch_cpus_1.iq.fu_full::SimdAddAcc            0      0.00%     84.86% # attempts to use FU when none available
system.switch_cpus_1.iq.fu_full::SimdAlu        10353      0.04%     84.90% # attempts to use FU when none available
system.switch_cpus_1.iq.fu_full::SimdCmp         1428      0.01%     84.91% # attempts to use FU when none available
system.switch_cpus_1.iq.fu_full::SimdCvt       171468      0.67%     85.58% # attempts to use FU when none available
system.switch_cpus_1.iq.fu_full::SimdMisc       134831      0.52%     86.10% # attempts to use FU when none available
system.switch_cpus_1.iq.fu_full::SimdMult            0      0.00%     86.10% # attempts to use FU when none available
system.switch_cpus_1.iq.fu_full::SimdMultAcc            0      0.00%     86.10% # attempts to use FU when none available
system.switch_cpus_1.iq.fu_full::SimdShift            0      0.00%     86.10% # attempts to use FU when none available
system.switch_cpus_1.iq.fu_full::SimdShiftAcc            0      0.00%     86.10% # attempts to use FU when none available
system.switch_cpus_1.iq.fu_full::SimdDiv            0      0.00%     86.10% # attempts to use FU when none available
system.switch_cpus_1.iq.fu_full::SimdSqrt            0      0.00%     86.10% # attempts to use FU when none available
system.switch_cpus_1.iq.fu_full::SimdFloatAdd       343538      1.34%     87.43% # attempts to use FU when none available
system.switch_cpus_1.iq.fu_full::SimdFloatAlu            0      0.00%     87.43% # attempts to use FU when none available
system.switch_cpus_1.iq.fu_full::SimdFloatCmp            0      0.00%     87.43% # attempts to use FU when none available
system.switch_cpus_1.iq.fu_full::SimdFloatCvt      1001301      3.89%     91.33% # attempts to use FU when none available
system.switch_cpus_1.iq.fu_full::SimdFloatDiv            0      0.00%     91.33% # attempts to use FU when none available
system.switch_cpus_1.iq.fu_full::SimdFloatMisc            0      0.00%     91.33% # attempts to use FU when none available
system.switch_cpus_1.iq.fu_full::SimdFloatMult        15588      0.06%     91.39% # attempts to use FU when none available
system.switch_cpus_1.iq.fu_full::SimdFloatMultAcc            0      0.00%     91.39% # attempts to use FU when none available
system.switch_cpus_1.iq.fu_full::SimdFloatSqrt            0      0.00%     91.39% # attempts to use FU when none available
system.switch_cpus_1.iq.fu_full::SimdReduceAdd            0      0.00%     91.39% # attempts to use FU when none available
system.switch_cpus_1.iq.fu_full::SimdReduceAlu            0      0.00%     91.39% # attempts to use FU when none available
system.switch_cpus_1.iq.fu_full::SimdReduceCmp            0      0.00%     91.39% # attempts to use FU when none available
system.switch_cpus_1.iq.fu_full::SimdFloatReduceAdd            0      0.00%     91.39% # attempts to use FU when none available
system.switch_cpus_1.iq.fu_full::SimdFloatReduceCmp            0      0.00%     91.39% # attempts to use FU when none available
system.switch_cpus_1.iq.fu_full::SimdAes            0      0.00%     91.39% # attempts to use FU when none available
system.switch_cpus_1.iq.fu_full::SimdAesMix            0      0.00%     91.39% # attempts to use FU when none available
system.switch_cpus_1.iq.fu_full::SimdSha1Hash            0      0.00%     91.39% # attempts to use FU when none available
system.switch_cpus_1.iq.fu_full::SimdSha1Hash2            0      0.00%     91.39% # attempts to use FU when none available
system.switch_cpus_1.iq.fu_full::SimdSha256Hash            0      0.00%     91.39% # attempts to use FU when none available
system.switch_cpus_1.iq.fu_full::SimdSha256Hash2            0      0.00%     91.39% # attempts to use FU when none available
system.switch_cpus_1.iq.fu_full::SimdShaSigma2            0      0.00%     91.39% # attempts to use FU when none available
system.switch_cpus_1.iq.fu_full::SimdShaSigma3            0      0.00%     91.39% # attempts to use FU when none available
system.switch_cpus_1.iq.fu_full::SimdPredAlu            0      0.00%     91.39% # attempts to use FU when none available
system.switch_cpus_1.iq.fu_full::MemRead      1406914      5.47%     96.85% # attempts to use FU when none available
system.switch_cpus_1.iq.fu_full::MemWrite       213185      0.83%     97.68% # attempts to use FU when none available
system.switch_cpus_1.iq.fu_full::FloatMemRead       212976      0.83%     98.51% # attempts to use FU when none available
system.switch_cpus_1.iq.fu_full::FloatMemWrite       383064      1.49%    100.00% # attempts to use FU when none available
system.switch_cpus_1.iq.fu_full::IprAccess            0      0.00%    100.00% # attempts to use FU when none available
system.switch_cpus_1.iq.fu_full::InstPrefetch            0      0.00%    100.00% # attempts to use FU when none available
system.switch_cpus_1.iq.int_alu_accesses   1784222681                       # Number of integer alu accesses
system.switch_cpus_1.iq.int_inst_queue_reads   4342320618                       # Number of integer instruction queue reads
system.switch_cpus_1.iq.int_inst_queue_wakeup_accesses   1738080302                       # Number of integer instruction queue wakeup accesses
system.switch_cpus_1.iq.int_inst_queue_writes   2180630073                       # Number of integer instruction queue writes
system.switch_cpus_1.iq.iqInstsAdded       2303817260                       # Number of instructions added to the IQ (excludes non-spec)
system.switch_cpus_1.iq.iqInstsIssued      2163280448                       # Number of instructions issued
system.switch_cpus_1.iq.iqNonSpecInstsAdded       253698                       # Number of non-speculative instructions added to the IQ
system.switch_cpus_1.iq.iqSquashedInstsExamined    390893424                       # Number of squashed instructions iterated over during squash; mainly for profiling
system.switch_cpus_1.iq.iqSquashedInstsIssued      3695147                       # Number of squashed instructions issued
system.switch_cpus_1.iq.iqSquashedNonSpecRemoved       252920                       # Number of squashed non-spec instructions that were removed
system.switch_cpus_1.iq.iqSquashedOperandsExamined    543410092                       # Number of squashed operands that are examined and possibly removed from graph
system.switch_cpus_1.iq.issued_per_cycle::samples    774187753                       # Number of insts issued each cycle
system.switch_cpus_1.iq.issued_per_cycle::mean     2.794258                       # Number of insts issued each cycle
system.switch_cpus_1.iq.issued_per_cycle::stdev     2.495345                       # Number of insts issued each cycle
system.switch_cpus_1.iq.issued_per_cycle::underflows            0      0.00%      0.00% # Number of insts issued each cycle
system.switch_cpus_1.iq.issued_per_cycle::0    235428516     30.41%     30.41% # Number of insts issued each cycle
system.switch_cpus_1.iq.issued_per_cycle::1     63374773      8.19%     38.60% # Number of insts issued each cycle
system.switch_cpus_1.iq.issued_per_cycle::2     84962317     10.97%     49.57% # Number of insts issued each cycle
system.switch_cpus_1.iq.issued_per_cycle::3     87676604     11.32%     60.90% # Number of insts issued each cycle
system.switch_cpus_1.iq.issued_per_cycle::4     85466958     11.04%     71.93% # Number of insts issued each cycle
system.switch_cpus_1.iq.issued_per_cycle::5     75697082      9.78%     81.71% # Number of insts issued each cycle
system.switch_cpus_1.iq.issued_per_cycle::6     71408786      9.22%     90.94% # Number of insts issued each cycle
system.switch_cpus_1.iq.issued_per_cycle::7     43236465      5.58%     96.52% # Number of insts issued each cycle
system.switch_cpus_1.iq.issued_per_cycle::8     26936252      3.48%    100.00% # Number of insts issued each cycle
system.switch_cpus_1.iq.issued_per_cycle::overflows            0      0.00%    100.00% # Number of insts issued each cycle
system.switch_cpus_1.iq.issued_per_cycle::min_value            0                       # Number of insts issued each cycle
system.switch_cpus_1.iq.issued_per_cycle::max_value            8                       # Number of insts issued each cycle
system.switch_cpus_1.iq.issued_per_cycle::total    774187753                       # Number of insts issued each cycle
system.switch_cpus_1.iq.rate                 2.792556                       # Inst issue rate
system.switch_cpus_1.iq.vec_alu_accesses            0                       # Number of vector alu accesses
system.switch_cpus_1.iq.vec_inst_queue_reads            0                       # Number of vector instruction queue reads
system.switch_cpus_1.iq.vec_inst_queue_wakeup_accesses            0                       # Number of vector instruction queue wakeup accesses
system.switch_cpus_1.iq.vec_inst_queue_writes            0                       # Number of vector instruction queue writes
system.switch_cpus_1.itb.rdAccesses                 0                       # TLB accesses on read requests
system.switch_cpus_1.itb.rdMisses                   0                       # TLB misses on read requests
system.switch_cpus_1.itb.wrAccesses         193022624                       # TLB accesses on write requests
system.switch_cpus_1.itb.wrMisses                2444                       # TLB misses on write requests
system.switch_cpus_1.memDep0.conflictingLoads     18460837                       # Number of conflicting loads.
system.switch_cpus_1.memDep0.conflictingStores      4695581                       # Number of conflicting stores.
system.switch_cpus_1.memDep0.insertedLoads    279434012                       # Number of loads inserted to the mem dependence unit.
system.switch_cpus_1.memDep0.insertedStores    132673156                       # Number of stores inserted to the mem dependence unit.
system.switch_cpus_1.misc_regfile_reads     850587797                       # number of misc regfile reads
system.switch_cpus_1.misc_regfile_writes           63                       # number of misc regfile writes
system.switch_cpus_1.numCycles              774659661                       # number of cpu cycles simulated
system.switch_cpus_1.numWorkItemsCompleted            0                       # number of work items this cpu completed
system.switch_cpus_1.numWorkItemsStarted            0                       # number of work items this cpu started
system.switch_cpus_1.rename.BlockCycles     137124110                       # Number of cycles rename is blocking
system.switch_cpus_1.rename.CommittedMaps   2145497260                       # Number of HB maps that are committed
system.switch_cpus_1.rename.IQFullEvents      8340641                       # Number of times rename has blocked due to IQ full
system.switch_cpus_1.rename.IdleCycles      199777121                       # Number of cycles rename is idle
system.switch_cpus_1.rename.LQFullEvents     11575049                       # Number of times rename has blocked due to LQ full
system.switch_cpus_1.rename.ROBFullEvents      2408292                       # Number of times rename has blocked due to ROB full
system.switch_cpus_1.rename.RenameLookups   5909257609                       # Number of register rename lookups that rename has made
system.switch_cpus_1.rename.RenamedInsts   2415634828                       # Number of instructions processed by rename
system.switch_cpus_1.rename.RenamedOperands   2699174011                       # Number of destination operands rename has renamed
system.switch_cpus_1.rename.RunCycles       373488086                       # Number of cycles rename is running
system.switch_cpus_1.rename.SQFullEvents     27226059                       # Number of times rename has blocked due to SQ full
system.switch_cpus_1.rename.SquashCycles     11480116                       # Number of cycles rename is squashing
system.switch_cpus_1.rename.UnblockCycles     52208868                       # Number of cycles rename is unblocking
system.switch_cpus_1.rename.UndoneMaps      553676700                       # Number of HB maps that are undone due to squashing
system.switch_cpus_1.rename.fp_rename_lookups    695312788                       # Number of floating rename lookups
system.switch_cpus_1.rename.int_rename_lookups   3060806955                       # Number of integer rename lookups
system.switch_cpus_1.rename.serializeStallCycles       109450                       # count of cycles rename stalled for serializing inst
system.switch_cpus_1.rename.serializingInsts        31572                       # count of serializing insts renamed
system.switch_cpus_1.rename.skidInsts        50385903                       # count of insts added to the skid buffer
system.switch_cpus_1.rename.tempSerializingInsts        32554                       # count of temporary serializing insts renamed
system.switch_cpus_1.rob.rob_reads         2895567236                       # The number of ROB reads
system.switch_cpus_1.rob.rob_writes        4664395760                       # The number of ROB writes
system.switch_cpus_1.timesIdled                 70442                       # Number of times that the entire CPU went into an idle state and unscheduled itself
system.tol2bus.snoop_filter.hit_multi_requests          200                       # Number of requests hitting in the snoop filter with multiple (>1) holders of the requested data.
system.tol2bus.snoop_filter.hit_multi_snoops            0                       # Number of snoops hitting in the snoop filter with multiple (>1) holders of the requested data.
system.tol2bus.snoop_filter.hit_single_requests      1921617                       # Number of requests hitting in the snoop filter with a single holder of the requested data.
system.tol2bus.snoop_filter.hit_single_snoops         4407                       # Number of snoops hitting in the snoop filter with a single holder of the requested data.
system.tol2bus.snoop_filter.tot_requests      3654298                       # Total number of requests made to the snoop filter.
system.tol2bus.snoop_filter.tot_snoops           4407                       # Total number of snoops made to the snoop filter.
system.tol3bus.snoop_filter.hit_multi_requests            0                       # Number of requests hitting in the snoop filter with multiple (>1) holders of the requested data.
system.tol3bus.snoop_filter.hit_multi_snoops            0                       # Number of snoops hitting in the snoop filter with multiple (>1) holders of the requested data.
system.tol3bus.snoop_filter.hit_single_requests      1376967                       # Number of requests hitting in the snoop filter with a single holder of the requested data.
system.tol3bus.snoop_filter.hit_single_snoops        42736                       # Number of snoops hitting in the snoop filter with a single holder of the requested data.
system.tol3bus.snoop_filter.tot_requests      2586860                       # Total number of requests made to the snoop filter.
system.tol3bus.snoop_filter.tot_snoops          42736                       # Total number of snoops made to the snoop filter.
system.membus.trans_dist::ReadResp             901767                       # Transaction distribution
system.membus.trans_dist::WritebackDirty       304940                       # Transaction distribution
system.membus.trans_dist::CleanEvict           747140                       # Transaction distribution
system.membus.trans_dist::UpgradeReq               56                       # Transaction distribution
system.membus.trans_dist::ReadExReq            150019                       # Transaction distribution
system.membus.trans_dist::ReadExResp           150019                       # Transaction distribution
system.membus.trans_dist::ReadSharedReq        901767                       # Transaction distribution
system.membus.pkt_count_system.l3.mem_side::system.mem_ctrls.port      3155708                       # Packet count per connected master and slave (bytes)
system.membus.pkt_count_system.l3.mem_side::total      3155708                       # Packet count per connected master and slave (bytes)
system.membus.pkt_count::total                3155708                       # Packet count per connected master and slave (bytes)
system.membus.pkt_size_system.l3.mem_side::system.mem_ctrls.port     86830464                       # Cumulative packet size per connected master and slave (bytes)
system.membus.pkt_size_system.l3.mem_side::total     86830464                       # Cumulative packet size per connected master and slave (bytes)
system.membus.pkt_size::total                86830464                       # Cumulative packet size per connected master and slave (bytes)
system.membus.snoops                                0                       # Total snoops (count)
system.membus.snoopTraffic                          0                       # Total snoop traffic (bytes)
system.membus.snoop_fanout::samples           1051842                       # Request fanout histogram
system.membus.snoop_fanout::mean                    0                       # Request fanout histogram
system.membus.snoop_fanout::stdev                   0                       # Request fanout histogram
system.membus.snoop_fanout::underflows              0      0.00%      0.00% # Request fanout histogram
system.membus.snoop_fanout::0                 1051842    100.00%    100.00% # Request fanout histogram
system.membus.snoop_fanout::1                       0      0.00%    100.00% # Request fanout histogram
system.membus.snoop_fanout::overflows               0      0.00%    100.00% # Request fanout histogram
system.membus.snoop_fanout::min_value               0                       # Request fanout histogram
system.membus.snoop_fanout::max_value               0                       # Request fanout histogram
system.membus.snoop_fanout::total             1051842                       # Request fanout histogram
system.membus.reqLayer2.occupancy          3582861500                       # Layer occupancy (ticks)
system.membus.reqLayer2.utilization               0.9                       # Layer utilization (%)
system.membus.respLayer1.occupancy         5563121750                       # Layer occupancy (ticks)
system.membus.respLayer1.utilization              1.4                       # Layer utilization (%)
system.membus.power_state.pwrStateResidencyTicks::UNDEFINED 1646807882500                       # Cumulative time (in ticks) in various power states
system.switch_cpus_1.dtb.walker.power_state.pwrStateResidencyTicks::UNDEFINED 1646807882500                       # Cumulative time (in ticks) in various power states
system.switch_cpus_1.itb.walker.power_state.pwrStateResidencyTicks::UNDEFINED 1646807882500                       # Cumulative time (in ticks) in various power states
system.switch_cpus_1.power_state.pwrStateResidencyTicks::OFF 1646807882500                       # Cumulative time (in ticks) in various power states
system.switch_cpus.dtb.walker.power_state.pwrStateResidencyTicks::UNDEFINED 1646807882500                       # Cumulative time (in ticks) in various power states
system.switch_cpus.itb.walker.power_state.pwrStateResidencyTicks::UNDEFINED 1646807882500                       # Cumulative time (in ticks) in various power states
system.switch_cpus.power_state.numTransitions            1                       # Number of power state transitions
system.switch_cpus.power_state.pwrStateResidencyTicks::OFF 1646807882500                       # Cumulative time (in ticks) in various power states
system.tol2bus.trans_dist::ReadResp           1521524                       # Transaction distribution
system.tol2bus.trans_dist::WritebackDirty       731043                       # Transaction distribution
system.tol2bus.trans_dist::WritebackClean       411148                       # Transaction distribution
system.tol2bus.trans_dist::CleanEvict          966762                       # Transaction distribution
system.tol2bus.trans_dist::UpgradeReq          189081                       # Transaction distribution
system.tol2bus.trans_dist::UpgradeResp         189081                       # Transaction distribution
system.tol2bus.trans_dist::ReadExReq           211086                       # Transaction distribution
system.tol2bus.trans_dist::ReadExResp          211086                       # Transaction distribution
system.tol2bus.trans_dist::ReadCleanReq       1521524                       # Transaction distribution
system.tol2bus.pkt_count_system.cpu.icache.mem_side::system.l2.cpu_side      1233448                       # Packet count per connected master and slave (bytes)
system.tol2bus.pkt_count_system.cpu.dcache.mem_side::system.l2.cpu_side      4342539                       # Packet count per connected master and slave (bytes)
system.tol2bus.pkt_count::total               5575987                       # Packet count per connected master and slave (bytes)
system.tol2bus.pkt_size_system.cpu.icache.mem_side::system.l2.cpu_side     52627008                       # Cumulative packet size per connected master and slave (bytes)
system.tol2bus.pkt_size_system.cpu.dcache.mem_side::system.l2.cpu_side    110182272                       # Cumulative packet size per connected master and slave (bytes)
system.tol2bus.pkt_size::total              162809280                       # Cumulative packet size per connected master and slave (bytes)
system.tol2bus.snoops                          376348                       # Total snoops (count)
system.tol2bus.snoopTraffic                  21177984                       # Total snoop traffic (bytes)
system.tol2bus.snoop_fanout::samples          2298037                       # Request fanout histogram
system.tol2bus.snoop_fanout::mean            0.002005                       # Request fanout histogram
system.tol2bus.snoop_fanout::stdev           0.044730                       # Request fanout histogram
system.tol2bus.snoop_fanout::underflows             0      0.00%      0.00% # Request fanout histogram
system.tol2bus.snoop_fanout::0                2293430     99.80%     99.80% # Request fanout histogram
system.tol2bus.snoop_fanout::1                   4607      0.20%    100.00% # Request fanout histogram
system.tol2bus.snoop_fanout::2                      0      0.00%    100.00% # Request fanout histogram
system.tol2bus.snoop_fanout::3                      0      0.00%    100.00% # Request fanout histogram
system.tol2bus.snoop_fanout::4                      0      0.00%    100.00% # Request fanout histogram
system.tol2bus.snoop_fanout::overflows              0      0.00%    100.00% # Request fanout histogram
system.tol2bus.snoop_fanout::min_value              0                       # Request fanout histogram
system.tol2bus.snoop_fanout::max_value              1                       # Request fanout histogram
system.tol2bus.snoop_fanout::total            2298037                       # Request fanout histogram
system.tol2bus.reqLayer0.occupancy         2638436000                       # Layer occupancy (ticks)
system.tol2bus.reqLayer0.utilization              0.7                       # Layer utilization (%)
system.tol2bus.respLayer1.occupancy        2076916624                       # Layer occupancy (ticks)
system.tol2bus.respLayer1.utilization             0.5                       # Layer utilization (%)
system.tol2bus.respLayer0.occupancy         616727498                       # Layer occupancy (ticks)
system.tol2bus.respLayer0.utilization             0.2                       # Layer utilization (%)
system.tol2bus.power_state.pwrStateResidencyTicks::UNDEFINED 1646807882500                       # Cumulative time (in ticks) in various power states
system.voltage_domain.voltage                       1                       # Voltage in Volts
system.clk_domain.clock                          1000                       # Clock period in ticks
system.l2.demand_hits::.switch_cpus_1.inst       408237                       # number of demand (read+write) hits
system.l2.demand_hits::.switch_cpus_1.data       114431                       # number of demand (read+write) hits
system.l2.demand_hits::total                   522668                       # number of demand (read+write) hits
system.l2.overall_hits::.switch_cpus_1.inst       408237                       # number of overall hits
system.l2.overall_hits::.switch_cpus_1.data       114431                       # number of overall hits
system.l2.overall_hits::total                  522668                       # number of overall hits
system.l2.demand_misses::.switch_cpus_1.inst         2912                       # number of demand (read+write) misses
system.l2.demand_misses::.switch_cpus_1.data      1207028                       # number of demand (read+write) misses
system.l2.demand_misses::total                1209940                       # number of demand (read+write) misses
system.l2.overall_misses::.switch_cpus_1.inst         2912                       # number of overall misses
system.l2.overall_misses::.switch_cpus_1.data      1207028                       # number of overall misses
system.l2.overall_misses::total               1209940                       # number of overall misses
system.l2.demand_miss_latency::.switch_cpus_1.inst    265432500                       # number of demand (read+write) miss cycles
system.l2.demand_miss_latency::.switch_cpus_1.data 104394210500                       # number of demand (read+write) miss cycles
system.l2.demand_miss_latency::total     104659643000                       # number of demand (read+write) miss cycles
system.l2.overall_miss_latency::.switch_cpus_1.inst    265432500                       # number of overall miss cycles
system.l2.overall_miss_latency::.switch_cpus_1.data 104394210500                       # number of overall miss cycles
system.l2.overall_miss_latency::total    104659643000                       # number of overall miss cycles
system.l2.demand_accesses::.switch_cpus_1.inst       411149                       # number of demand (read+write) accesses
system.l2.demand_accesses::.switch_cpus_1.data      1321459                       # number of demand (read+write) accesses
system.l2.demand_accesses::total              1732608                       # number of demand (read+write) accesses
system.l2.overall_accesses::.switch_cpus_1.inst       411149                       # number of overall (read+write) accesses
system.l2.overall_accesses::.switch_cpus_1.data      1321459                       # number of overall (read+write) accesses
system.l2.overall_accesses::total             1732608                       # number of overall (read+write) accesses
[...]
system.cpu.dcache.demand_miss_latency::total 480570643994                       # number of demand (read+write) miss cycles
system.cpu.dcache.overall_miss_latency::.switch_cpus.data    829614000                       # number of overall miss cycles
system.cpu.dcache.overall_miss_latency::.switch_cpus_1.data 479741029994                       # number of overall miss cycles
system.cpu.dcache.overall_miss_latency::total 480570643994                       # number of overall miss cycles
system.cpu.dcache.demand_accesses::.cpu.data    398468329                       # number of demand (read+write) accesses
system.cpu.dcache.demand_accesses::.switch_cpus.data     19936533                       # number of demand (read+write) accesses
system.cpu.dcache.demand_accesses::.switch_cpus_1.data    344121742                       # number of demand (read+write) accesses
system.cpu.dcache.demand_accesses::total    762526604                       # number of demand (read+write) accesses
system.cpu.dcache.overall_accesses::.cpu.data    398468329                       # number of overall (read+write) accesses
system.cpu.dcache.overall_accesses::.switch_cpus.data     19936533                       # number of overall (read+write) accesses
system.cpu.dcache.overall_accesses::.switch_cpus_1.data    344121742                       # number of overall (read+write) accesses
system.cpu.dcache.overall_accesses::total    762526604                       # number of overall (read+write) accesses
system.cpu.dcache.demand_miss_rate::.cpu.data     0.001211                       # miss rate for demand accesses
system.cpu.dcache.demand_miss_rate::.switch_cpus.data     0.000969                       # miss rate for demand accesses
system.cpu.dcache.demand_miss_rate::.switch_cpus_1.data     0.019894                       # miss rate for demand accesses
system.cpu.dcache.demand_miss_rate::total     0.009636                       # miss rate for demand accesses
system.cpu.dcache.overall_miss_rate::.cpu.data     0.001211                       # miss rate for overall accesses
system.cpu.dcache.overall_miss_rate::.switch_cpus.data     0.000969                       # miss rate for overall accesses
system.cpu.dcache.overall_miss_rate::.switch_cpus_1.data     0.019894                       # miss rate for overall accesses
system.cpu.dcache.overall_miss_rate::total     0.009636                       # miss rate for overall accesses
system.cpu.dcache.demand_avg_miss_latency::.switch_cpus.data 42927.351754                       # average overall miss latency
system.cpu.dcache.demand_avg_miss_latency::.switch_cpus_1.data 70076.158395                       # average overall miss latency
system.cpu.dcache.demand_avg_miss_latency::total 65401.717641                       # average overall miss latency
system.cpu.dcache.overall_avg_miss_latency::.switch_cpus.data 42927.351754                       # average overall miss latency
system.cpu.dcache.overall_avg_miss_latency::.switch_cpus_1.data 70076.158395                       # average overall miss latency
system.cpu.dcache.overall_avg_miss_latency::total 65401.717641                       # average overall miss latency
system.cpu.dcache.blocked_cycles::no_mshrs      8577778                       # number of cycles access was blocked
system.cpu.dcache.blocked_cycles::no_targets         7669                       # number of cycles access was blocked
system.cpu.dcache.blocked::no_mshrs            209080                       # number of cycles access was blocked
system.cpu.dcache.blocked::no_targets              72                       # number of cycles access was blocked
system.cpu.dcache.avg_blocked_cycles::no_mshrs    41.026296                       # average number of cycles each access was blocked
system.cpu.dcache.avg_blocked_cycles::no_targets   106.513889                       # average number of cycles each access was blocked
system.cpu.dcache.writebacks::.writebacks       623300                       # number of writebacks
system.cpu.dcache.writebacks::total            623300                       # number of writebacks
system.cpu.dcache.demand_mshr_hits::.switch_cpus_1.data      5337155                       # number of demand (read+write) MSHR hits
system.cpu.dcache.demand_mshr_hits::total      5337155                       # number of demand (read+write) MSHR hits
system.cpu.dcache.overall_mshr_hits::.switch_cpus_1.data      5337155                       # number of overall MSHR hits
system.cpu.dcache.overall_mshr_hits::total      5337155                       # number of overall MSHR hits
system.cpu.dcache.demand_mshr_misses::.switch_cpus.data        19326                       # number of demand (read+write) MSHR misses
system.cpu.dcache.demand_mshr_misses::.switch_cpus_1.data      1508840                       # number of demand (read+write) MSHR misses
system.cpu.dcache.demand_mshr_misses::total      1528166                       # number of demand (read+write) MSHR misses
system.cpu.dcache.overall_mshr_misses::.switch_cpus.data        19326                       # number of overall MSHR misses
system.cpu.dcache.overall_mshr_misses::.switch_cpus_1.data      1508840                       # number of overall MSHR misses
system.cpu.dcache.overall_mshr_misses::total      1528166                       # number of overall MSHR misses
system.cpu.dcache.demand_mshr_miss_latency::.switch_cpus.data    810288000                       # number of demand (read+write) MSHR miss cycles
system.cpu.dcache.demand_mshr_miss_latency::.switch_cpus_1.data 112504640494                       # number of demand (read+write) MSHR miss cycles
system.cpu.dcache.demand_mshr_miss_latency::total 113314928494                       # number of demand (read+write) MSHR miss cycles
system.cpu.dcache.overall_mshr_miss_latency::.switch_cpus.data    810288000                       # number of overall MSHR miss cycles
system.cpu.dcache.overall_mshr_miss_latency::.switch_cpus_1.data 112504640494                       # number of overall MSHR miss cycles
system.cpu.dcache.overall_mshr_miss_latency::total 113314928494                       # number of overall MSHR miss cycles
system.cpu.dcache.demand_mshr_miss_rate::.switch_cpus.data     0.000969                       # mshr miss rate for demand accesses
system.cpu.dcache.demand_mshr_miss_rate::.switch_cpus_1.data     0.004385                       # mshr miss rate for demand accesses
system.cpu.dcache.demand_mshr_miss_rate::total     0.002004                       # mshr miss rate for demand accesses
system.cpu.dcache.overall_mshr_miss_rate::.switch_cpus.data     0.000969                       # mshr miss rate for overall accesses
system.cpu.dcache.overall_mshr_miss_rate::.switch_cpus_1.data     0.004385                       # mshr miss rate for overall accesses
system.cpu.dcache.overall_mshr_miss_rate::total     0.002004                       # mshr miss rate for overall accesses
system.cpu.dcache.demand_avg_mshr_miss_latency::.switch_cpus.data 41927.351754                       # average overall mshr miss latency
system.cpu.dcache.demand_avg_mshr_miss_latency::.switch_cpus_1.data 74563.665130                       # average overall mshr miss latency
system.cpu.dcache.demand_avg_mshr_miss_latency::total 74150.928953                       # average overall mshr miss latency
system.cpu.dcache.overall_avg_mshr_miss_latency::.switch_cpus.data 41927.351754                       # average overall mshr miss latency
system.cpu.dcache.overall_avg_mshr_miss_latency::.switch_cpus_1.data 74563.665130                       # average overall mshr miss latency
system.cpu.dcache.overall_avg_mshr_miss_latency::total 74150.928953                       # average overall mshr miss latency
system.cpu.dcache.replacements                1791731                       # number of replacements
system.cpu.dcache.ReadReq_hits::.cpu.data    222401914                       # number of ReadReq hits
system.cpu.dcache.ReadReq_hits::.switch_cpus.data     11108457                       # number of ReadReq hits
system.cpu.dcache.ReadReq_hits::.switch_cpus_1.data    224753490                       # number of ReadReq hits
system.cpu.dcache.ReadReq_hits::total       458263861                       # number of ReadReq hits
system.cpu.dcache.ReadReq_misses::.cpu.data       267234                       # number of ReadReq misses
system.cpu.dcache.ReadReq_misses::.switch_cpus.data        11302                       # number of ReadReq misses
system.cpu.dcache.ReadReq_misses::.switch_cpus_1.data      6445828                       # number of ReadReq misses
system.cpu.dcache.ReadReq_misses::total       6724364                       # number of ReadReq misses
system.cpu.dcache.ReadReq_miss_latency::.switch_cpus.data    309633000                       # number of ReadReq miss cycles
system.cpu.dcache.ReadReq_miss_latency::.switch_cpus_1.data 458771850000                       # number of ReadReq miss cycles
system.cpu.dcache.ReadReq_miss_latency::total 459081483000                       # number of ReadReq miss cycles
system.cpu.dcache.ReadReq_accesses::.cpu.data    222669148                       # number of ReadReq accesses(hits+misses)
system.cpu.dcache.ReadReq_accesses::.switch_cpus.data     11119759                       # number of ReadReq accesses(hits+misses)
system.cpu.dcache.ReadReq_accesses::.switch_cpus_1.data    231199318                       # number of ReadReq accesses(hits+misses)
system.cpu.dcache.ReadReq_accesses::total    464988225                       # number of ReadReq accesses(hits+misses)
system.cpu.dcache.ReadReq_miss_rate::.cpu.data     0.001200                       # miss rate for ReadReq accesses
system.cpu.dcache.ReadReq_miss_rate::.switch_cpus.data     0.001016                       # miss rate for ReadReq accesses
system.cpu.dcache.ReadReq_miss_rate::.switch_cpus_1.data     0.027880                       # miss rate for ReadReq accesses
system.cpu.dcache.ReadReq_miss_rate::total     0.014461                       # miss rate for ReadReq accesses
system.cpu.dcache.ReadReq_avg_miss_latency::.switch_cpus.data 27396.301540                       # average ReadReq miss latency
system.cpu.dcache.ReadReq_avg_miss_latency::.switch_cpus_1.data 71173.455140                       # average ReadReq miss latency
system.cpu.dcache.ReadReq_avg_miss_latency::total 68271.361128                       # average ReadReq miss latency
system.cpu.dcache.ReadReq_mshr_hits::.switch_cpus_1.data      5335453                       # number of ReadReq MSHR hits
system.cpu.dcache.ReadReq_mshr_hits::total      5335453                       # number of ReadReq MSHR hits
system.cpu.dcache.ReadReq_mshr_misses::.switch_cpus.data        11302                       # number of ReadReq MSHR misses
system.cpu.dcache.ReadReq_mshr_misses::.switch_cpus_1.data      1110375                       # number of ReadReq MSHR misses
system.cpu.dcache.ReadReq_mshr_misses::total      1121677                       # number of ReadReq MSHR misses
system.cpu.dcache.ReadReq_mshr_miss_latency::.switch_cpus.data    298331000                       # number of ReadReq MSHR miss cycles
system.cpu.dcache.ReadReq_mshr_miss_latency::.switch_cpus_1.data  91935817500                       # number of ReadReq MSHR miss cycles
system.cpu.dcache.ReadReq_mshr_miss_latency::total  92234148500                       # number of ReadReq MSHR miss cycles
system.cpu.dcache.ReadReq_mshr_miss_rate::.switch_cpus.data     0.001016                       # mshr miss rate for ReadReq accesses
system.cpu.dcache.ReadReq_mshr_miss_rate::.switch_cpus_1.data     0.004803                       # mshr miss rate for ReadReq accesses
system.cpu.dcache.ReadReq_mshr_miss_rate::total     0.002412                       # mshr miss rate for ReadReq accesses
system.cpu.dcache.ReadReq_avg_mshr_miss_latency::.switch_cpus.data 26396.301540                       # average ReadReq mshr miss latency
system.cpu.dcache.ReadReq_avg_mshr_miss_latency::.switch_cpus_1.data 82797.088821                       # average ReadReq mshr miss latency
system.cpu.dcache.ReadReq_avg_mshr_miss_latency::total 82228.795366                       # average ReadReq mshr miss latency
system.cpu.dcache.WriteReq_hits::.cpu.data    175583754                       # number of WriteReq hits
system.cpu.dcache.WriteReq_hits::.switch_cpus.data      8808750                       # number of WriteReq hits
system.cpu.dcache.WriteReq_hits::.switch_cpus_1.data    112522257                       # number of WriteReq hits
system.cpu.dcache.WriteReq_hits::total      296914761                       # number of WriteReq hits
system.cpu.dcache.WriteReq_misses::.cpu.data       215427                       # number of WriteReq misses
system.cpu.dcache.WriteReq_misses::.switch_cpus.data         8024                       # number of WriteReq misses
system.cpu.dcache.WriteReq_misses::.switch_cpus_1.data       400167                       # number of WriteReq misses
system.cpu.dcache.WriteReq_misses::total       623618                       # number of WriteReq misses
system.cpu.dcache.WriteReq_miss_latency::.switch_cpus.data    519981000                       # number of WriteReq miss cycles
system.cpu.dcache.WriteReq_miss_latency::.switch_cpus_1.data  20969179994                       # number of WriteReq miss cycles
system.cpu.dcache.WriteReq_miss_latency::total  21489160994                       # number of WriteReq miss cycles
system.cpu.dcache.WriteReq_accesses::.cpu.data    175799181                       # number of WriteReq accesses(hits+misses)
system.cpu.dcache.WriteReq_accesses::.switch_cpus.data      8816774                       # number of WriteReq accesses(hits+misses)
system.cpu.dcache.WriteReq_accesses::.switch_cpus_1.data    112922424                       # number of WriteReq accesses(hits+misses)
system.cpu.dcache.WriteReq_accesses::total    297538379                       # number of WriteReq accesses(hits+misses)
system.cpu.dcache.WriteReq_miss_rate::.cpu.data     0.001225                       # miss rate for WriteReq accesses
system.cpu.dcache.WriteReq_miss_rate::.switch_cpus.data     0.000910                       # miss rate for WriteReq accesses
system.cpu.dcache.WriteReq_miss_rate::.switch_cpus_1.data     0.003544                       # miss rate for WriteReq accesses
system.cpu.dcache.WriteReq_miss_rate::total     0.002096                       # miss rate for WriteReq accesses
system.cpu.dcache.WriteReq_avg_miss_latency::.switch_cpus.data 64803.215354                       # average WriteReq miss latency
system.cpu.dcache.WriteReq_avg_miss_latency::.switch_cpus_1.data 52401.072537                       # average WriteReq miss latency
system.cpu.dcache.WriteReq_avg_miss_latency::total 34458.853006                       # average WriteReq miss latency
system.cpu.dcache.WriteReq_mshr_hits::.switch_cpus_1.data         1702                       # number of WriteReq MSHR hits
system.cpu.dcache.WriteReq_mshr_hits::total         1702                       # number of WriteReq MSHR hits
system.cpu.dcache.WriteReq_mshr_misses::.switch_cpus.data         8024                       # number of WriteReq MSHR misses
system.cpu.dcache.WriteReq_mshr_misses::.switch_cpus_1.data       398465                       # number of WriteReq MSHR misses
system.cpu.dcache.WriteReq_mshr_misses::total       406489                       # number of WriteReq MSHR misses
system.cpu.dcache.WriteReq_mshr_miss_latency::.switch_cpus.data    511957000                       # number of WriteReq MSHR miss cycles
system.cpu.dcache.WriteReq_mshr_miss_latency::.switch_cpus_1.data  20568822994                       # number of WriteReq MSHR miss cycles
system.cpu.dcache.WriteReq_mshr_miss_latency::total  21080779994                       # number of WriteReq MSHR miss cycles
system.cpu.dcache.WriteReq_mshr_miss_rate::.switch_cpus.data     0.000910                       # mshr miss rate for WriteReq accesses
system.cpu.dcache.WriteReq_mshr_miss_rate::.switch_cpus_1.data     0.003529                       # mshr miss rate for WriteReq accesses
system.cpu.dcache.WriteReq_mshr_miss_rate::total     0.001366                       # mshr miss rate for WriteReq accesses
system.cpu.dcache.WriteReq_avg_mshr_miss_latency::.switch_cpus.data 63803.215354                       # average WriteReq mshr miss latency
system.cpu.dcache.WriteReq_avg_mshr_miss_latency::.switch_cpus_1.data 51620.149810                       # average WriteReq mshr miss latency
system.cpu.dcache.WriteReq_avg_mshr_miss_latency::total 51860.640741                       # average WriteReq mshr miss latency
system.cpu.dcache.power_state.pwrStateResidencyTicks::UNDEFINED 1646807882500                       # Cumulative time (in ticks) in various power states
system.cpu.dcache.tags.tagsinuse           511.995544                       # Cycle average of tags in use
system.cpu.dcache.tags.total_refs           757215271                       # Total number of references to valid blocks.
system.cpu.dcache.tags.sampled_refs           1792243                       # Sample count of references to valid blocks.
system.cpu.dcache.tags.avg_refs            422.495873                       # Average number of references to valid blocks.
system.cpu.dcache.tags.warmup_cycle              1500                       # Cycle when the warmup percentage was hit.
system.cpu.dcache.tags.occ_blocks::.cpu.data   373.157776                       # Average occupied blocks per requestor
system.cpu.dcache.tags.occ_blocks::.switch_cpus.data    22.355205                       # Average occupied blocks per requestor
system.cpu.dcache.tags.occ_blocks::.switch_cpus_1.data   116.482564                       # Average occupied blocks per requestor
system.cpu.dcache.tags.occ_percent::.cpu.data     0.728824                       # Average percentage of cache occupancy
system.cpu.dcache.tags.occ_percent::.switch_cpus.data     0.043663                       # Average percentage of cache occupancy
system.cpu.dcache.tags.occ_percent::.switch_cpus_1.data     0.227505                       # Average percentage of cache occupancy
system.cpu.dcache.tags.occ_percent::total     0.999991                       # Average percentage of cache occupancy
system.cpu.dcache.tags.occ_task_id_blocks::1024          512                       # Occupied blocks per task id
system.cpu.dcache.tags.age_task_id_blocks_1024::0            1                       # Occupied blocks per task id
system.cpu.dcache.tags.age_task_id_blocks_1024::1           10                       # Occupied blocks per task id
system.cpu.dcache.tags.age_task_id_blocks_1024::2          103                       # Occupied blocks per task id
system.cpu.dcache.tags.age_task_id_blocks_1024::3          230                       # Occupied blocks per task id
system.cpu.dcache.tags.age_task_id_blocks_1024::4          168                       # Occupied blocks per task id
system.cpu.dcache.tags.occ_task_id_percent::1024            1                       # Percentage of cache occupancy per task id
system.cpu.dcache.tags.tag_accesses        3051898659                       # Number of tag accesses
system.cpu.dcache.tags.data_accesses       3051898659                       # Number of data accesses
system.cpu.dcache.tags.power_state.pwrStateResidencyTicks::UNDEFINED 1646807882500                       # Cumulative time (in ticks) in various power states
system.cpu.power_state.numTransitions               2                       # Number of power state transitions
system.cpu.power_state.pwrStateResidencyTicks::ON 1169538804500                       # Cumulative time (in ticks) in various power states
system.cpu.power_state.pwrStateResidencyTicks::OFF 477269078000                       # Cumulative time (in ticks) in various power states

---------- End Simulation Statistics   ----------
