
---------- Begin Simulation Statistics ----------
final_tick                               1653864375000                       # Number of ticks from beginning of simulation (restored from checkpoints and never reset)
host_inst_rate                                 170944                       # Simulator instruction rate (inst/s)
host_mem_usage                                4596844                       # Number of bytes of host memory used
host_op_rate                                   330705                       # Simulator op (including micro ops) rate (op/s)
host_seconds                                 11992.25                       # Real time elapsed on the host
host_tick_rate                               32885473                       # Simulator tick rate (ticks/s)
sim_freq                                 1000000000000                       # Frequency of simulated ticks
sim_insts                                  2050000004                       # Number of instructions simulated
sim_ops                                    3965900558                       # Number of ops (including micro ops) simulated
sim_seconds                                  0.394371                       # Number of seconds simulated
sim_ticks                                394370753000                       # Number of ticks simulated
system.cpu.committedInsts                           0                       # Number of instructions committed
system.cpu.committedOps                             0                       # Number of ops (including micro ops) committed
system.cpu.dtb.rdAccesses                           0                       # TLB accesses on read requests
system.cpu.dtb.rdMisses                             0                       # TLB misses on read requests
system.cpu.dtb.wrAccesses                           0                       # TLB accesses on write requests
system.cpu.dtb.wrMisses                             0                       # TLB misses on write requests
system.cpu.idle_fraction                            0                       # Percentage of idle cycles
system.cpu.itb.rdAccesses                           0                       # TLB accesses on read requests
system.cpu.itb.rdMisses                             0                       # TLB misses on read requests
system.cpu.itb.wrAccesses                           0                       # TLB accesses on write requests
system.cpu.itb.wrMisses                             0                       # TLB misses on write requests
system.cpu.not_idle_fraction                        1                       # Percentage of non-idle cycles
system.cpu.numCycles                                0                       # number of cpu cycles simulated
system.cpu.numWorkItemsCompleted                    0                       # number of work items this cpu completed
system.cpu.numWorkItemsStarted                      0                       # number of work items this cpu started
system.cpu.num_busy_cycles                          0                       # Number of busy cycles
system.cpu.num_conditional_control_insts            0                       # number of instructions that are conditional controls
system.cpu.num_fp_alu_accesses                      0                       # Number of float alu accesses
system.cpu.num_fp_insts                             0                       # number of float instructions
system.cpu.num_fp_register_reads                    0                       # number of times the floating registers were read
system.cpu.num_fp_register_writes                   0                       # number of times the floating registers were written
system.cpu.num_func_calls                           0                       # number of times a function call or return occured
system.cpu.num_idle_cycles                          0                       # Number of idle cycles
system.cpu.num_int_alu_accesses                     0                       # Number of integer alu accesses
system.cpu.num_int_insts                            0                       # number of integer instructions
system.cpu.num_int_register_reads                   0                       # number of times the integer registers were read
system.cpu.num_int_register_writes                  0                       # number of times the integer registers were written
system.cpu.num_load_insts                           0                       # Number of load instructions
system.cpu.num_mem_refs                             0                       # number of memory refs
system.cpu.num_store_insts                          0                       # Number of store instructions
system.cpu.num_vec_alu_accesses                     0                       # Number of vector alu accesses
system.cpu.num_vec_insts                            0                       # number of vector instructions
system.cpu.num_vec_register_reads                   0                       # number of times the vector registers were read
system.cpu.num_vec_register_writes                  0                       # number of times the vector registers were written
system.cpu.op_class::No_OpClass                     0                       # Class of executed instruction
system.cpu.op_class::IntAlu                         0                       # Class of executed instruction
system.cpu.op_class::IntMult                        0                       # Class of executed instruction
system.cpu.op_class::IntDiv                         0                       # Class of executed instruction
system.cpu.op_class::FloatAdd                       0                       # Class of executed instruction
system.cpu.op_class::FloatCmp                       0                       # Class of executed instruction
system.cpu.op_class::FloatCvt                       0                       # Class of executed instruction
system.cpu.op_class::FloatMult                      0                       # Class of executed instruction
system.cpu.op_class::FloatMultAcc                   0                       # Class of executed instruction
system.cpu.op_class::FloatDiv                       0                       # Class of executed instruction
system.cpu.op_class::FloatMisc                      0                       # Class of executed instruction
system.cpu.op_class::FloatSqrt                      0                       # Class of executed instruction
system.cpu.op_class::SimdAdd                        0                       # Class of executed instruction
system.cpu.op_class::SimdAddAcc                     0                       # Class of executed instruction
system.cpu.op_class::SimdAlu                        0                       # Class of executed instruction
system.cpu.op_class::SimdCmp                        0                       # Class of executed instruction
system.cpu.op_class::SimdCvt                        0                       # Class of executed instruction
system.cpu.op_class::SimdMisc                       0                       # Class of executed instruction
system.cpu.op_class::SimdMult                       0                       # Class of executed instruction
system.cpu.op_class::SimdMultAcc                    0                       # Class of executed instruction
system.cpu.op_class::SimdShift                      0                       # Class of executed instruction
system.cpu.op_class::SimdShiftAcc                   0                       # Class of executed instruction
system.cpu.op_class::SimdDiv                        0                       # Class of executed instruction
system.cpu.op_class::SimdSqrt                       0                       # Class of executed instruction
system.cpu.op_class::SimdFloatAdd                   0                       # Class of executed instruction
system.cpu.op_class::SimdFloatAlu                   0                       # Class of executed instruction
system.cpu.op_class::SimdFloatCmp                   0                       # Class of executed instruction
system.cpu.op_class::SimdFloatCvt                   0                       # Class of executed instruction
system.cpu.op_class::SimdFloatDiv                   0                       # Class of executed instruction
system.cpu.op_class::SimdFloatMisc                  0                       # Class of executed instruction
system.cpu.op_class::SimdFloatMult                  0                       # Class of executed instruction
system.cpu.op_class::SimdFloatMultAcc               0                       # Class of executed instruction
system.cpu.op_class::SimdFloatSqrt                  0                       # Class of executed instruction
system.cpu.op_class::SimdReduceAdd                  0                       # Class of executed instruction
system.cpu.op_class::SimdReduceAlu                  0                       # Class of executed instruction
system.cpu.op_class::SimdReduceCmp                  0                       # Class of executed instruction
system.cpu.op_class::SimdFloatReduceAdd             0                       # Class of executed instruction
system.cpu.op_class::SimdFloatReduceCmp             0                       # Class of executed instruction
system.cpu.op_class::SimdAes                        0                       # Class of executed instruction
system.cpu.op_class::SimdAesMix                     0                       # Class of executed instruction
system.cpu.op_class::SimdSha1Hash                   0                       # Class of executed instruction
system.cpu.op_class::SimdSha1Hash2                  0                       # Class of executed instruction
system.cpu.op_class::SimdSha256Hash                 0                       # Class of executed instruction
system.cpu.op_class::SimdSha256Hash2                0                       # Class of executed instruction
system.cpu.op_class::SimdShaSigma2                  0                       # Class of executed instruction
system.cpu.op_class::SimdShaSigma3                  0                       # Class of executed instruction
system.cpu.op_class::SimdPredAlu                    0                       # Class of executed instruction
system.cpu.op_class::MemRead                        0                       # Class of executed instruction
system.cpu.op_class::MemWrite                       0                       # Class of executed instruction
system.cpu.op_class::FloatMemRead                   0                       # Class of executed instruction
system.cpu.op_class::FloatMemWrite                  0                       # Class of executed instruction
system.cpu.op_class::IprAccess                      0                       # Class of executed instruction
system.cpu.op_class::InstPrefetch                   0                       # Class of executed instruction
system.cpu.op_class::total                          0                       # Class of executed instruction
system.cpu.workload.numSyscalls                   505                       # Number of system calls
system.membus.snoop_filter.hit_multi_requests            0                       # Number of requests hitting in the snoop filter with multiple (>1) holders of the requested data.
system.membus.snoop_filter.hit_multi_snoops            0                       # Number of snoops hitting in the snoop filter with multiple (>1) holders of the requested data.
system.membus.snoop_filter.hit_single_requests      1051851                       # Number of requests hitting in the snoop filter with a single holder of the requested data.
system.membus.snoop_filter.hit_single_snoops            0                       # Number of snoops hitting in the snoop filter with a single holder of the requested data.
system.membus.snoop_filter.tot_requests       2103389                       # Total number of requests made to the snoop filter.
system.membus.snoop_filter.tot_snoops               0                       # Total number of snoops made to the snoop filter.
system.switch_cpus.committedInsts                   0                       # Number of instructions committed
system.switch_cpus.committedOps                     0                       # Number of ops (including micro ops) committed
system.switch_cpus.dtb.rdAccesses                   0                       # TLB accesses on read requests
system.switch_cpus.dtb.rdMisses                     0                       # TLB misses on read requests
system.switch_cpus.dtb.wrAccesses                   0                       # TLB accesses on write requests
system.switch_cpus.dtb.wrMisses                     0                       # TLB misses on write requests
system.switch_cpus.idle_fraction                    0                       # Percentage of idle cycles
system.switch_cpus.itb.rdAccesses                   0                       # TLB accesses on read requests
system.switch_cpus.itb.rdMisses                     0                       # TLB misses on read requests
system.switch_cpus.itb.wrAccesses                   0                       # TLB accesses on write requests
system.switch_cpus.itb.wrMisses                     0                       # TLB misses on write requests
system.switch_cpus.not_idle_fraction                1                       # Percentage of non-idle cycles
system.switch_cpus.numCycles                        0                       # number of cpu cycles simulated
system.switch_cpus.numWorkItemsCompleted            0                       # number of work items this cpu completed
system.switch_cpus.numWorkItemsStarted              0                       # number of work items this cpu started
system.switch_cpus.num_busy_cycles                  0                       # Number of busy cycles
system.switch_cpus.num_conditional_control_insts            0                       # number of instructions that are conditional controls
system.switch_cpus.num_fp_alu_accesses              0                       # Number of float alu accesses
system.switch_cpus.num_fp_insts                     0                       # number of float instructions
system.switch_cpus.num_fp_register_reads            0                       # number of times the floating registers were read
system.switch_cpus.num_fp_register_writes            0                       # number of times the floating registers were written
system.switch_cpus.num_func_calls                   0                       # number of times a function call or return occured
system.switch_cpus.num_idle_cycles                  0                       # Number of idle cycles
system.switch_cpus.num_int_alu_accesses             0                       # Number of integer alu accesses
system.switch_cpus.num_int_insts                    0                       # number of integer instructions
system.switch_cpus.num_int_register_reads            0                       # number of times the integer registers were read
system.switch_cpus.num_int_register_writes            0                       # number of times the integer registers were written
system.switch_cpus.num_load_insts                   0                       # Number of load instructions
system.switch_cpus.num_mem_refs                     0                       # number of memory refs
system.switch_cpus.num_store_insts                  0                       # Number of store instructions
system.switch_cpus.num_vec_alu_accesses             0                       # Number of vector alu accesses
system.switch_cpus.num_vec_insts                    0                       # number of vector instructions
system.switch_cpus.num_vec_register_reads            0                       # number of times the vector registers were read
system.switch_cpus.num_vec_register_writes            0                       # number of times the vector registers were written
system.switch_cpus.op_class::No_OpClass             0                       # Class of executed instruction
system.switch_cpus.op_class::IntAlu                 0                       # Class of executed instruction
system.switch_cpus.op_class::IntMult                0                       # Class of executed instruction
system.switch_cpus.op_class::IntDiv                 0                       # Class of executed instruction
system.switch_cpus.op_class::FloatAdd               0                       # Class of executed instruction
system.switch_cpus.op_class::FloatCmp               0                       # Class of executed instruction
system.switch_cpus.op_class::FloatCvt               0                       # Class of executed instruction
system.switch_cpus.op_class::FloatMult              0                       # Class of executed instruction
system.switch_cpus.op_class::FloatMultAcc            0                       # Class of executed instruction
system.switch_cpus.op_class::FloatDiv               0                       # Class of executed instruction
system.switch_cpus.op_class::FloatMisc              0                       # Class of executed instruction
system.switch_cpus.op_class::FloatSqrt              0                       # Class of executed instruction
system.switch_cpus.op_class::SimdAdd                0                       # Class of executed instruction
system.switch_cpus.op_class::SimdAddAcc             0                       # Class of executed instruction
system.switch_cpus.op_class::SimdAlu                0                       # Class of executed instruction
system.switch_cpus.op_class::SimdCmp                0                       # Class of executed instruction
system.switch_cpus.op_class::SimdCvt                0                       # Class of executed instruction
system.switch_cpus.op_class::SimdMisc               0                       # Class of executed instruction
system.switch_cpus.op_class::SimdMult               0                       # Class of executed instruction
system.switch_cpus.op_class::SimdMultAcc            0                       # Class of executed instruction
system.switch_cpus.op_class::SimdShift              0                       # Class of executed instruction
system.switch_cpus.op_class::SimdShiftAcc            0                       # Class of executed instruction
system.switch_cpus.op_class::SimdDiv                0                       # Class of executed instruction
system.switch_cpus.op_class::SimdSqrt               0                       # Class of executed instruction
system.switch_cpus.op_class::SimdFloatAdd            0                       # Class of executed instruction
system.switch_cpus.op_class::SimdFloatAlu            0                       # Class of executed instruction
system.switch_cpus.op_class::SimdFloatCmp            0                       # Class of executed instruction
system.switch_cpus.op_class::SimdFloatCvt            0                       # Class of executed instruction
system.switch_cpus.op_class::SimdFloatDiv            0                       # Class of executed instruction
system.switch_cpus.op_class::SimdFloatMisc            0                       # Class of executed instruction
system.switch_cpus.op_class::SimdFloatMult            0                       # Class of executed instruction
system.switch_cpus.op_class::SimdFloatMultAcc            0                       # Class of executed instruction
system.switch_cpus.op_class::SimdFloatSqrt            0                       # Class of executed instruction
system.switch_cpus.op_class::SimdReduceAdd            0                       # Class of executed instruction
system.switch_cpus.op_class::SimdReduceAlu            0                       # Class of executed instruction
system.switch_cpus.op_class::SimdReduceCmp            0                       # Class of executed instruction
system.switch_cpus.op_class::SimdFloatReduceAdd            0                       # Class of executed instruction
system.switch_cpus.op_class::SimdFloatReduceCmp            0                       # Class of executed instruction
system.switch_cpus.op_class::SimdAes                0                       # Class of executed instruction
system.switch_cpus.op_class::SimdAesMix             0                       # Class of executed instruction
system.switch_cpus.op_class::SimdSha1Hash            0                       # Class of executed instruction
system.switch_cpus.op_class::SimdSha1Hash2            0                       # Class of executed instruction
system.switch_cpus.op_class::SimdSha256Hash            0                       # Class of executed instruction
system.switch_cpus.op_class::SimdSha256Hash2            0                       # Class of executed instruction
system.switch_cpus.op_class::SimdShaSigma2            0                       # Class of executed instruction
system.switch_cpus.op_class::SimdShaSigma3            0                       # Class of executed instruction
system.switch_cpus.op_class::SimdPredAlu            0                       # Class of executed instruction
system.switch_cpus.op_class::MemRead                0                       # Class of executed instruction
system.switch_cpus.op_class::MemWrite               0                       # Class of executed instruction
system.switch_cpus.op_class::FloatMemRead            0                       # Class of executed instruction
system.switch_cpus.op_class::FloatMemWrite            0                       # Class of executed instruction
system.switch_cpus.op_class::IprAccess              0                       # Class of executed instruction
system.switch_cpus.op_class::InstPrefetch            0                       # Class of executed instruction
system.switch_cpus.op_class::total                  0                       # Class of executed instruction
system.switch_cpus_1.branchPred.BTBCorrect            0                       # Number of correct BTB predictions (this stat may not work properly.
system.switch_cpus_1.branchPred.BTBHitPct          nan                       # BTB Hit Percentage
system.switch_cpus_1.branchPred.BTBHits             0                       # Number of BTB hits
system.switch_cpus_1.branchPred.BTBLookups            0                       # Number of BTB lookups
system.switch_cpus_1.branchPred.RASInCorrect          375                       # Number of incorrect RAS predictions.
system.switch_cpus_1.branchPred.condIncorrect     11961508                       # Number of conditional branches incorrect
system.switch_cpus_1.branchPred.condPredicted    221460393                       # Number of conditional branches predicted
system.switch_cpus_1.branchPred.indirectHits    100917225                       # Number of indirect target hits.
system.switch_cpus_1.branchPred.indirectLookups    124588078                       # Number of indirect predictor lookups.
system.switch_cpus_1.branchPred.indirectMisses     23670853                       # Number of indirect misses.
system.switch_cpus_1.branchPred.lookups     246623824                       # Number of BP lookups
system.switch_cpus_1.branchPred.usedRAS      12136945                       # Number of times the RAS was used to get a target.
system.switch_cpus_1.branchPredindirectMispredicted      8008076                       # Number of mispredicted indirect branches.
system.switch_cpus_1.cc_regfile_reads      1022364189                       # number of cc regfile reads
system.switch_cpus_1.cc_regfile_writes      589625803                       # number of cc regfile writes
system.switch_cpus_1.commit.amos                    0                       # Number of atomic instructions committed
system.switch_cpus_1.commit.branchMispredicts     11963404                       # The number of times a branch was mispredicted
system.switch_cpus_1.commit.branches        186020285                       # Number of branches committed
system.switch_cpus_1.commit.bw_lim_events    124805268                       # number cycles where commit BW limit reached
system.switch_cpus_1.commit.commitNonSpecStalls          778                       # The number of times commit has been forced to stall to communicate backwards
system.switch_cpus_1.commit.commitSquashedInsts    408107702                       # The number of squashed insts skipped by commit
system.switch_cpus_1.commit.committedInsts   1000000001                       # Number of instructions committed
system.switch_cpus_1.commit.committedOps   1913177477                       # Number of ops (including micro ops) committed
system.switch_cpus_1.commit.committed_per_cycle::samples    728906140                       # Number of insts commited each cycle
system.switch_cpus_1.commit.committed_per_cycle::mean     2.624724                       # Number of insts commited each cycle
system.switch_cpus_1.commit.committed_per_cycle::stdev     2.962162                       # Number of insts commited each cycle
system.switch_cpus_1.commit.committed_per_cycle::underflows            0      0.00%      0.00% # Number of insts commited each cycle
system.switch_cpus_1.commit.committed_per_cycle::0    267665298     36.72%     36.72% # Number of insts commited each cycle
system.switch_cpus_1.commit.committed_per_cycle::1    105001351     14.41%     51.13% # Number of insts commited each cycle
system.switch_cpus_1.commit.committed_per_cycle::2     65121384      8.93%     60.06% # Number of insts commited each cycle
system.switch_cpus_1.commit.committed_per_cycle::3     81016638     11.11%     71.18% # Number of insts commited each cycle
system.switch_cpus_1.commit.committed_per_cycle::4     32714792      4.49%     75.66% # Number of insts commited each cycle
system.switch_cpus_1.commit.committed_per_cycle::5     23759480      3.26%     78.92% # Number of insts commited each cycle
system.switch_cpus_1.commit.committed_per_cycle::6     14968771      2.05%     80.98% # Number of insts commited each cycle
system.switch_cpus_1.commit.committed_per_cycle::7     13853158      1.90%     82.88% # Number of insts commited each cycle
system.switch_cpus_1.commit.committed_per_cycle::8    124805268     17.12%    100.00% # Number of insts commited each cycle
system.switch_cpus_1.commit.committed_per_cycle::overflows            0      0.00%    100.00% # Number of insts commited each cycle
system.switch_cpus_1.commit.committed_per_cycle::min_value            0                       # Number of insts commited each cycle
system.switch_cpus_1.commit.committed_per_cycle::max_value            8                       # Number of insts commited each cycle
system.switch_cpus_1.commit.committed_per_cycle::total    728906140                       # Number of insts commited each cycle
system.switch_cpus_1.commit.fp_insts        342164187                       # Number of committed floating point instructions.
system.switch_cpus_1.commit.function_calls      9247179                       # Number of function calls committed.
system.switch_cpus_1.commit.int_insts      1644843513                       # Number of committed integer instructions.
system.switch_cpus_1.commit.loads           234446733                       # Number of loads committed
system.switch_cpus_1.commit.membars               140                       # Number of memory barriers committed
system.switch_cpus_1.commit.op_class_0::No_OpClass      5783843      0.30%      0.30% # Class of committed instruction
system.switch_cpus_1.commit.op_class_0::IntAlu   1346449001     70.38%     70.68% # Class of committed instruction
system.switch_cpus_1.commit.op_class_0::IntMult      1181117      0.06%     70.74% # Class of committed instruction
system.switch_cpus_1.commit.op_class_0::IntDiv      5794698      0.30%     71.04% # Class of committed instruction
system.switch_cpus_1.commit.op_class_0::FloatAdd     46866852      2.45%     73.49% # Class of committed instruction
system.switch_cpus_1.commit.op_class_0::FloatCmp            0      0.00%     73.49% # Class of committed instruction
system.switch_cpus_1.commit.op_class_0::FloatCvt          112      0.00%     73.49% # Class of committed instruction
system.switch_cpus_1.commit.op_class_0::FloatMult            0      0.00%     73.49% # Class of committed instruction
system.switch_cpus_1.commit.op_class_0::FloatMultAcc            0      0.00%     73.49% # Class of committed instruction
system.switch_cpus_1.commit.op_class_0::FloatDiv            0      0.00%     73.49% # Class of committed instruction
system.switch_cpus_1.commit.op_class_0::FloatMisc            0      0.00%     73.49% # Class of committed instruction
system.switch_cpus_1.commit.op_class_0::FloatSqrt            0      0.00%     73.49% # Class of committed instruction
system.switch_cpus_1.commit.op_class_0::SimdAdd            0      0.00%     73.49% # Class of committed instruction
system.switch_cpus_1.commit.op_class_0::SimdAddAcc            0      0.00%     73.49% # Class of committed instruction
system.switch_cpus_1.commit.op_class_0::SimdAlu     22244818      1.16%     74.66% # Class of committed instruction
system.switch_cpus_1.commit.op_class_0::SimdCmp       687450      0.04%     74.69% # Class of committed instruction
system.switch_cpus_1.commit.op_class_0::SimdCvt      4362488      0.23%     74.92% # Class of committed instruction
system.switch_cpus_1.commit.op_class_0::SimdMisc     12842429      0.67%     75.59% # Class of committed instruction
system.switch_cpus_1.commit.op_class_0::SimdMult            0      0.00%     75.59% # Class of committed instruction
system.switch_cpus_1.commit.op_class_0::SimdMultAcc            0      0.00%     75.59% # Class of committed instruction
system.switch_cpus_1.commit.op_class_0::SimdShift            0      0.00%     75.59% # Class of committed instruction
system.switch_cpus_1.commit.op_class_0::SimdShiftAcc            0      0.00%     75.59% # Class of committed instruction
system.switch_cpus_1.commit.op_class_0::SimdDiv            0      0.00%     75.59% # Class of committed instruction
system.switch_cpus_1.commit.op_class_0::SimdSqrt            0      0.00%     75.59% # Class of committed instruction
system.switch_cpus_1.commit.op_class_0::SimdFloatAdd     49159879      2.57%     78.16% # Class of committed instruction
system.switch_cpus_1.commit.op_class_0::SimdFloatAlu            0      0.00%     78.16% # Class of committed instruction
system.switch_cpus_1.commit.op_class_0::SimdFloatCmp            0      0.00%     78.16% # Class of committed instruction
system.switch_cpus_1.commit.op_class_0::SimdFloatCvt     45731328      2.39%     80.55% # Class of committed instruction
system.switch_cpus_1.commit.op_class_0::SimdFloatDiv      1922135      0.10%     80.65% # Class of committed instruction
system.switch_cpus_1.commit.op_class_0::SimdFloatMisc            0      0.00%     80.65% # Class of committed instruction
system.switch_cpus_1.commit.op_class_0::SimdFloatMult     22831089      1.19%     81.85% # Class of committed instruction
system.switch_cpus_1.commit.op_class_0::SimdFloatMultAcc            0      0.00%     81.85% # Class of committed instruction
system.switch_cpus_1.commit.op_class_0::SimdFloatSqrt            0      0.00%     81.85% # Class of committed instruction
system.switch_cpus_1.commit.op_class_0::SimdReduceAdd            0      0.00%     81.85% # Class of committed instruction
system.switch_cpus_1.commit.op_class_0::SimdReduceAlu            0      0.00%     81.85% # Class of committed instruction
system.switch_cpus_1.commit.op_class_0::SimdReduceCmp            0      0.00%     81.85% # Class of committed instruction
system.switch_cpus_1.commit.op_class_0::SimdFloatReduceAdd            0      0.00%     81.85% # Class of committed instruction
system.switch_cpus_1.commit.op_class_0::SimdFloatReduceCmp            0      0.00%     81.85% # Class of committed instruction
system.switch_cpus_1.commit.op_class_0::SimdAes            0      0.00%     81.85% # Class of committed instruction
system.switch_cpus_1.commit.op_class_0::SimdAesMix            0      0.00%     81.85% # Class of committed instruction
system.switch_cpus_1.commit.op_class_0::SimdSha1Hash            0      0.00%     81.85% # Class of committed instruction
system.switch_cpus_1.commit.op_class_0::SimdSha1Hash2            0      0.00%     81.85% # Class of committed instruction
system.switch_cpus_1.commit.op_class_0::SimdSha256Hash            0      0.00%     81.85% # Class of committed instruction
system.switch_cpus_1.commit.op_class_0::SimdSha256Hash2            0      0.00%     81.85% # Class of committed instruction
system.switch_cpus_1.commit.op_class_0::SimdShaSigma2            0      0.00%     81.85% # Class of committed instruction
system.switch_cpus_1.commit.op_class_0::SimdShaSigma3            0      0.00%     81.85% # Class of committed instruction
system.switch_cpus_1.commit.op_class_0::SimdPredAlu            0      0.00%     81.85% # Class of committed instruction
system.switch_cpus_1.commit.op_class_0::MemRead    174644758      9.13%     90.97% # Class of committed instruction
system.switch_cpus_1.commit.op_class_0::MemWrite    102526795      5.36%     96.33% # Class of committed instruction
system.switch_cpus_1.commit.op_class_0::FloatMemRead     59801975      3.13%     99.46% # Class of committed instruction
system.switch_cpus_1.commit.op_class_0::FloatMemWrite     10346710      0.54%    100.00% # Class of committed instruction
system.switch_cpus_1.commit.op_class_0::IprAccess            0      0.00%    100.00% # Class of committed instruction
system.switch_cpus_1.commit.op_class_0::InstPrefetch            0      0.00%    100.00% # Class of committed instruction
system.switch_cpus_1.commit.op_class_0::total   1913177477                       # Class of committed instruction
system.switch_cpus_1.commit.refs            347320238                       # Number of memory references committed
system.switch_cpus_1.commit.swp_count               0                       # Number of s/w prefetches committed
system.switch_cpus_1.commit.vec_insts               0                       # Number of committed Vector instructions.
system.switch_cpus_1.committedInsts        1000000001                       # Number of Instructions Simulated
system.switch_cpus_1.committedOps          1913177477                       # Number of Ops (including micro ops) Simulated
system.switch_cpus_1.cpi                     0.788742                       # CPI: Cycles Per Instruction
system.switch_cpus_1.cpi_total               0.788742                       # CPI: Total CPI of All Threads
system.switch_cpus_1.decode.BlockedCycles    188358182                       # Number of cycles decode is blocked
system.switch_cpus_1.decode.DecodedInsts   2488649397                       # Number of instructions handled by decode
system.switch_cpus_1.decode.IdleCycles      199006870                       # Number of cycles decode is idle
system.switch_cpus_1.decode.RunCycles       369110960                       # Number of cycles decode is running
system.switch_cpus_1.decode.SquashCycles     11975192                       # Number of cycles decode is squashing
system.switch_cpus_1.decode.UnblockCycles     19088053                       # Number of cycles decode is unblocking
system.switch_cpus_1.dtb.rdAccesses         262754173                       # TLB accesses on read requests
system.switch_cpus_1.dtb.rdMisses              954065                       # TLB misses on read requests
system.switch_cpus_1.dtb.wrAccesses         121570574                       # TLB accesses on write requests
system.switch_cpus_1.dtb.wrMisses              110916                       # TLB misses on write requests
system.switch_cpus_1.fetch.Branches         246623824                       # Number of branches that fetch encountered
system.switch_cpus_1.fetch.CacheLines       194207822                       # Number of cache lines fetched
system.switch_cpus_1.fetch.Cycles           558859897                       # Number of cycles fetch has run and was not squashing or blocked
system.switch_cpus_1.fetch.IcacheSquashes      3273548                       # Number of outstanding Icache misses that were squashed
system.switch_cpus_1.fetch.IcacheWaitRetryStallCycles          600                       # Number of stall cycles due to full MSHR
system.switch_cpus_1.fetch.Insts           1342805359                       # Number of instructions fetch has processed
system.switch_cpus_1.fetch.MiscStallCycles         3165                       # Number of cycles fetch has spent waiting on interrupts, or bad addresses, or out of MSHRs
system.switch_cpus_1.fetch.PendingTrapStallCycles        19508                       # Number of stall cycles due to pending traps
system.switch_cpus_1.fetch.SquashCycles      23950384                       # Number of cycles fetch has spent squashing
system.switch_cpus_1.fetch.TlbCycles                6                       # Number of cycles fetch has spent waiting for tlb
system.switch_cpus_1.fetch.branchRate        0.312680                       # Number of branch fetches per cycle
system.switch_cpus_1.fetch.icacheStallCycles    216680896                       # Number of cycles fetch is stalled on an Icache miss
system.switch_cpus_1.fetch.predictedBranches    113054170                       # Number of branches that fetch has predicted taken
system.switch_cpus_1.fetch.rate              1.702466                       # Number of inst fetches per cycle
system.switch_cpus_1.fetch.rateDist::samples    787539264                       # Number of instructions fetched each cycle (Total)
system.switch_cpus_1.fetch.rateDist::mean     3.249550                       # Number of instructions fetched each cycle (Total)
system.switch_cpus_1.fetch.rateDist::stdev     3.543953                       # Number of instructions fetched each cycle (Total)
system.switch_cpus_1.fetch.rateDist::underflows            0      0.00%      0.00% # Number of instructions fetched each cycle (Total)
system.switch_cpus_1.fetch.rateDist::0      370196552     47.01%     47.01% # Number of instructions fetched each cycle (Total)
system.switch_cpus_1.fetch.rateDist::1       29600103      3.76%     50.77% # Number of instructions fetched each cycle (Total)
system.switch_cpus_1.fetch.rateDist::2       25882577      3.29%     54.05% # Number of instructions fetched each cycle (Total)
system.switch_cpus_1.fetch.rateDist::3       34152588      4.34%     58.39% # Number of instructions fetched each cycle (Total)
system.switch_cpus_1.fetch.rateDist::4       20321460      2.58%     60.97% # Number of instructions fetched each cycle (Total)
system.switch_cpus_1.fetch.rateDist::5       32523999      4.13%     65.10% # Number of instructions fetched each cycle (Total)
system.switch_cpus_1.fetch.rateDist::6       24746146      3.14%     68.24% # Number of instructions fetched each cycle (Total)
system.switch_cpus_1.fetch.rateDist::7       17984136      2.28%     70.52% # Number of instructions fetched each cycle (Total)
system.switch_cpus_1.fetch.rateDist::8      232131703     29.48%    100.00% # Number of instructions fetched each cycle (Total)
system.switch_cpus_1.fetch.rateDist::overflows            0      0.00%    100.00% # Number of instructions fetched each cycle (Total)
system.switch_cpus_1.fetch.rateDist::min_value            0                       # Number of instructions fetched each cycle (Total)
system.switch_cpus_1.fetch.rateDist::max_value            8                       # Number of instructions fetched each cycle (Total)
system.switch_cpus_1.fetch.rateDist::total    787539264                       # Number of instructions fetched each cycle (Total)
system.switch_cpus_1.fp_regfile_reads       589243165                       # number of floating regfile reads
system.switch_cpus_1.fp_regfile_writes      343205063                       # number of floating regfile writes
system.switch_cpus_1.idleCycles               1202242                       # Total number of cycles that the CPU has spent unscheduled due to idling
system.switch_cpus_1.iew.branchMispredicts     15078552                       # Number of branch mispredicts detected at execute
system.switch_cpus_1.iew.exec_branches      202902042                       # Number of branches executed
system.switch_cpus_1.iew.exec_nop                   0                       # number of nop insts executed
system.switch_cpus_1.iew.exec_rate           2.719082                       # Inst execution rate
system.switch_cpus_1.iew.exec_refs          384859574                       # number of memory reference insts executed
system.switch_cpus_1.iew.exec_stores        121515823                       # Number of stores executed
system.switch_cpus_1.iew.exec_swp                   0                       # number of swp insts executed
system.switch_cpus_1.iew.iewBlockCycles      95909641                       # Number of cycles IEW is blocking
system.switch_cpus_1.iew.iewDispLoadInsts    282936725                       # Number of dispatched load instructions
system.switch_cpus_1.iew.iewDispNonSpecInsts       163610                       # Number of dispatched non-speculative instructions
system.switch_cpus_1.iew.iewDispSquashedInsts       664812                       # Number of squashed instructions skipped by dispatch
system.switch_cpus_1.iew.iewDispStoreInsts    132826785                       # Number of dispatched store instructions
system.switch_cpus_1.iew.iewDispatchedInsts   2321375439                       # Number of instructions dispatched to IQ
system.switch_cpus_1.iew.iewExecLoadInsts    263343751                       # Number of load instructions executed
system.switch_cpus_1.iew.iewExecSquashedInsts     30674896                       # Number of squashed instructions skipped in execute
system.switch_cpus_1.iew.iewExecutedInsts   2144652708                       # Number of executed instructions
system.switch_cpus_1.iew.iewIQFullEvents       682707                       # Number of times the IQ has become full, causing a stall
system.switch_cpus_1.iew.iewIdleCycles              0                       # Number of cycles IEW is idle
system.switch_cpus_1.iew.iewLSQFullEvents     17124736                       # Number of times the LSQ has become full, causing a stall
system.switch_cpus_1.iew.iewSquashCycles     11975192                       # Number of cycles IEW is squashing
system.switch_cpus_1.iew.iewUnblockCycles     18042304                       # Number of cycles IEW is unblocking
system.switch_cpus_1.iew.lsq.thread0.blockedLoads            0                       # Number of blocked loads due to partial load-store forwarding
system.switch_cpus_1.iew.lsq.thread0.cacheBlocked       183322                       # Number of times an access to memory failed due to the cache being blocked
system.switch_cpus_1.iew.lsq.thread0.forwLoads     27941825                       # Number of loads that had data forwarded from stores
system.switch_cpus_1.iew.lsq.thread0.ignoredResponses       173040                       # Number of memory responses ignored because the instruction is squashed
system.switch_cpus_1.iew.lsq.thread0.invAddrLoads            0                       # Number of loads ignored due to an invalid address
system.switch_cpus_1.iew.lsq.thread0.invAddrSwpfs            0                       # Number of software prefetches ignored due to an invalid address
system.switch_cpus_1.iew.lsq.thread0.memOrderViolation        14879                       # Number of memory ordering violations
system.switch_cpus_1.iew.lsq.thread0.rescheduledLoads        83286                       # Number of loads that were rescheduled
system.switch_cpus_1.iew.lsq.thread0.squashedLoads     48489987                       # Number of loads squashed
system.switch_cpus_1.iew.lsq.thread0.squashedStores     19953277                       # Number of stores squashed
system.switch_cpus_1.iew.memOrderViolationEvents        14879                       # Number of memory order violations
system.switch_cpus_1.iew.predictedNotTakenIncorrect     13457855                       # Number of branches that were predicted not taken incorrectly
system.switch_cpus_1.iew.predictedTakenIncorrect      1620697                       # Number of branches that were predicted taken incorrectly
system.switch_cpus_1.iew.wb_consumers      2531849213                       # num instructions consuming a value
system.switch_cpus_1.iew.wb_count          2132643112                       # cumulative count of insts written-back
system.switch_cpus_1.iew.wb_fanout           0.620613                       # average fanout of values written-back
system.switch_cpus_1.iew.wb_producers      1571298088                       # num instructions producing a value
system.switch_cpus_1.iew.wb_rate             2.703856                       # insts written-back per cycle
system.switch_cpus_1.iew.wb_sent           2138087332                       # cumulative count of insts sent to commit
system.switch_cpus_1.int_regfile_reads     2656915967                       # number of integer regfile reads
system.switch_cpus_1.int_regfile_writes    1447895543                       # number of integer regfile writes
system.switch_cpus_1.ipc                     1.267842                       # IPC: Instructions Per Cycle
system.switch_cpus_1.ipc_total               1.267842                       # IPC: Total IPC of All Threads
system.switch_cpus_1.iq.FU_type_0::No_OpClass     10063277      0.46%      0.46% # Type of FU issued
system.switch_cpus_1.iq.FU_type_0::IntAlu   1533778752     70.51%     70.97% # Type of FU issued
system.switch_cpus_1.iq.FU_type_0::IntMult      1247933      0.06%     71.03% # Type of FU issued
system.switch_cpus_1.iq.FU_type_0::IntDiv      5973893      0.27%     71.30% # Type of FU issued
system.switch_cpus_1.iq.FU_type_0::FloatAdd     55501153      2.55%     73.85% # Type of FU issued
system.switch_cpus_1.iq.FU_type_0::FloatCmp            0      0.00%     73.85% # Type of FU issued
system.switch_cpus_1.iq.FU_type_0::FloatCvt          574      0.00%     73.85% # Type of FU issued
system.switch_cpus_1.iq.FU_type_0::FloatMult            0      0.00%     73.85% # Type of FU issued
system.switch_cpus_1.iq.FU_type_0::FloatMultAcc            0      0.00%     73.85% # Type of FU issued
system.switch_cpus_1.iq.FU_type_0::FloatDiv            0      0.00%     73.85% # Type of FU issued
system.switch_cpus_1.iq.FU_type_0::FloatMisc            0      0.00%     73.85% # Type of FU issued
system.switch_cpus_1.iq.FU_type_0::FloatSqrt            0      0.00%     73.85% # Type of FU issued
system.switch_cpus_1.iq.FU_type_0::SimdAdd            0      0.00%     73.85% # Type of FU issued
system.switch_cpus_1.iq.FU_type_0::SimdAddAcc            0      0.00%     73.85% # Type of FU issued
system.switch_cpus_1.iq.FU_type_0::SimdAlu     25020155      1.15%     75.00% # Type of FU issued
system.switch_cpus_1.iq.FU_type_0::SimdCmp       720524      0.03%     75.04% # Type of FU issued
system.switch_cpus_1.iq.FU_type_0::SimdCvt      5424367      0.25%     75.29% # Type of FU issued
system.switch_cpus_1.iq.FU_type_0::SimdMisc     14824894      0.68%     75.97% # Type of FU issued
system.switch_cpus_1.iq.FU_type_0::SimdMult            0      0.00%     75.97% # Type of FU issued
system.switch_cpus_1.iq.FU_type_0::SimdMultAcc            0      0.00%     75.97% # Type of FU issued
system.switch_cpus_1.iq.FU_type_0::SimdShift            0      0.00%     75.97% # Type of FU issued
system.switch_cpus_1.iq.FU_type_0::SimdShiftAcc            0      0.00%     75.97% # Type of FU issued
system.switch_cpus_1.iq.FU_type_0::SimdDiv            0      0.00%     75.97% # Type of FU issued
system.switch_cpus_1.iq.FU_type_0::SimdSqrt            0      0.00%     75.97% # Type of FU issued
system.switch_cpus_1.iq.FU_type_0::SimdFloatAdd     54393616      2.50%     78.47% # Type of FU issued
system.switch_cpus_1.iq.FU_type_0::SimdFloatAlu            0      0.00%     78.47% # Type of FU issued
system.switch_cpus_1.iq.FU_type_0::SimdFloatCmp            0      0.00%     78.47% # Type of FU issued
system.switch_cpus_1.iq.FU_type_0::SimdFloatCvt     49862926      2.29%     80.76% # Type of FU issued
system.switch_cpus_1.iq.FU_type_0::SimdFloatDiv      1924389      0.09%     80.85% # Type of FU issued
system.switch_cpus_1.iq.FU_type_0::SimdFloatMisc            0      0.00%     80.85% # Type of FU issued
system.switch_cpus_1.iq.FU_type_0::SimdFloatMult     23656568      1.09%     81.94% # Type of FU issued
system.switch_cpus_1.iq.FU_type_0::SimdFloatMultAcc            0      0.00%     81.94% # Type of FU issued
system.switch_cpus_1.iq.FU_type_0::SimdFloatSqrt            0      0.00%     81.94% # Type of FU issued
system.switch_cpus_1.iq.FU_type_0::SimdReduceAdd            0      0.00%     81.94% # Type of FU issued
system.switch_cpus_1.iq.FU_type_0::SimdReduceAlu            0      0.00%     81.94% # Type of FU issued
system.switch_cpus_1.iq.FU_type_0::SimdReduceCmp            0      0.00%     81.94% # Type of FU issued
system.switch_cpus_1.iq.FU_type_0::SimdFloatReduceAdd            0      0.00%     81.94% # Type of FU issued
system.switch_cpus_1.iq.FU_type_0::SimdFloatReduceCmp            0      0.00%     81.94% # Type of FU issued
system.switch_cpus_1.iq.FU_type_0::SimdAes            0      0.00%     81.94% # Type of FU issued
system.switch_cpus_1.iq.FU_type_0::SimdAesMix            0      0.00%     81.94% # Type of FU issued
system.switch_cpus_1.iq.FU_type_0::SimdSha1Hash            0      0.00%     81.94% # Type of FU issued
system.switch_cpus_1.iq.FU_type_0::SimdSha1Hash2            0      0.00%     81.94% # Type of FU issued
system.switch_cpus_1.iq.FU_type_0::SimdSha256Hash            0      0.00%     81.94% # Type of FU issued
system.switch_cpus_1.iq.FU_type_0::SimdSha256Hash2            0      0.00%     81.94% # Type of FU issued
system.switch_cpus_1.iq.FU_type_0::SimdShaSigma2            0      0.00%     81.94% # Type of FU issued
system.switch_cpus_1.iq.FU_type_0::SimdShaSigma3            0      0.00%     81.94% # Type of FU issued
system.switch_cpus_1.iq.FU_type_0::SimdPredAlu            0      0.00%     81.94% # Type of FU issued
system.switch_cpus_1.iq.FU_type_0::MemRead    197464869      9.08%     91.01% # Type of FU issued
system.switch_cpus_1.iq.FU_type_0::MemWrite    112429386      5.17%     96.18% # Type of FU issued
system.switch_cpus_1.iq.FU_type_0::FloatMemRead     70945694      3.26%     99.44% # Type of FU issued
system.switch_cpus_1.iq.FU_type_0::FloatMemWrite     12094637      0.56%    100.00% # Type of FU issued
system.switch_cpus_1.iq.FU_type_0::IprAccess            0      0.00%    100.00% # Type of FU issued
system.switch_cpus_1.iq.FU_type_0::InstPrefetch            0      0.00%    100.00% # Type of FU issued
system.switch_cpus_1.iq.FU_type_0::total   2175327607                       # Type of FU issued
system.switch_cpus_1.iq.fp_alu_accesses     395200256                       # Number of floating point alu accesses
system.switch_cpus_1.iq.fp_inst_queue_reads    788961256                       # Number of floating instruction queue reads
system.switch_cpus_1.iq.fp_inst_queue_wakeup_accesses    385727740                       # Number of floating instruction queue wakeup accesses
system.switch_cpus_1.iq.fp_inst_queue_writes    516823841                       # Number of floating instruction queue writes
system.switch_cpus_1.iq.fu_busy_cnt          25783638                       # FU busy when requested
system.switch_cpus_1.iq.fu_busy_rate         0.011853                       # FU busy rate (busy events/executed inst)
system.switch_cpus_1.iq.fu_full::No_OpClass            0      0.00%      0.00% # attempts to use FU when none available
system.switch_cpus_1.iq.fu_full::IntAlu      22212719     86.15%     86.15% # attempts to use FU when none available
system.switch_cpus_1.iq.fu_full::IntMult            0      0.00%     86.15% # attempts to use FU when none available
system.switch_cpus_1.iq.fu_full::IntDiv             0      0.00%     86.15% # attempts to use FU when none available
system.switch_cpus_1.iq.fu_full::FloatAdd            0      0.00%     86.15% # attempts to use FU when none available
system.switch_cpus_1.iq.fu_full::FloatCmp            0      0.00%     86.15% # attempts to use FU when none available
system.switch_cpus_1.iq.fu_full::FloatCvt            1      0.00%     86.15% # attempts to use FU when none available
system.switch_cpus_1.iq.fu_full::FloatMult            0      0.00%     86.15% # attempts to use FU when none available
system.switch_cpus_1.iq.fu_full::FloatMultAcc            0      0.00%     86.15% # attempts to use FU when none available
system.switch_cpus_1.iq.fu_full::FloatDiv            0      0.00%     86.15% # attempts to use FU when none available
system.switch_cpus_1.iq.fu_full::FloatMisc            0      0.00%     86.15% # attempts to use FU when none available
system.switch_cpus_1.iq.fu_full::FloatSqrt            0      0.00%     86.15% # attempts to use FU when none available
system.switch_cpus_1.iq.fu_full::SimdAdd            0      0.00%     86.15% # attempts to use FU when none available
system.switch_cpus_1.iq.fu_full::SimdAddAcc            0      0.00%     86.15% # attempts to use FU when none available
system.switch_cpus_1.iq.fu_full::SimdAlu         9583      0.04%     86.19% # attempts to use FU when none available
system.switch_cpus_1.iq.fu_full::SimdCmp        13041      0.05%     86.24% # attempts to use FU when none available
system.switch_cpus_1.iq.fu_full::SimdCvt       176139      0.68%     86.92% # attempts to use FU when none available
system.switch_cpus_1.iq.fu_full::SimdMisc       113964      0.44%     87.36% # attempts to use FU when none available
system.switch_cpus_1.iq.fu_full::SimdMult            0      0.00%     87.36% # attempts to use FU when none available
system.switch_cpus_1.iq.fu_full::SimdMultAcc            0      0.00%     87.36% # attempts to use FU when none available
system.switch_cpus_1.iq.fu_full::SimdShift            0      0.00%     87.36% # attempts to use FU when none available
system.switch_cpus_1.iq.fu_full::SimdShiftAcc            0      0.00%     87.36% # attempts to use FU when none available
system.switch_cpus_1.iq.fu_full::SimdDiv            0      0.00%     87.36% # attempts to use FU when none available
system.switch_cpus_1.iq.fu_full::SimdSqrt            0      0.00%     87.36% # attempts to use FU when none available
system.switch_cpus_1.iq.fu_full::SimdFloatAdd       333052      1.29%     88.66% # attempts to use FU when none available
system.switch_cpus_1.iq.fu_full::SimdFloatAlu            0      0.00%     88.66% # attempts to use FU when none available
system.switch_cpus_1.iq.fu_full::SimdFloatCmp            0      0.00%     88.66% # attempts to use FU when none available
system.switch_cpus_1.iq.fu_full::SimdFloatCvt       984312      3.82%     92.47% # attempts to use FU when none available
system.switch_cpus_1.iq.fu_full::SimdFloatDiv            0      0.00%     92.47% # attempts to use FU when none available
system.switch_cpus_1.iq.fu_full::SimdFloatMisc            0      0.00%     92.47% # attempts to use FU when none available
system.switch_cpus_1.iq.fu_full::SimdFloatMult        20187      0.08%     92.55% # attempts to use FU when none available
system.switch_cpus_1.iq.fu_full::SimdFloatMultAcc            0      0.00%     92.55% # attempts to use FU when none available
system.switch_cpus_1.iq.fu_full::SimdFloatSqrt            0      0.00%     92.55% # attempts to use FU when none available
system.switch_cpus_1.iq.fu_full::SimdReduceAdd            0      0.00%     92.55% # attempts to use FU when none available
system.switch_cpus_1.iq.fu_full::SimdReduceAlu            0      0.00%     92.55% # attempts to use FU when none available
system.switch_cpus_1.iq.fu_full::SimdReduceCmp            0      0.00%     92.55% # attempts to use FU when none available
system.switch_cpus_1.iq.fu_full::SimdFloatReduceAdd            0      0.00%     92.55% # attempts to use FU when none available
system.switch_cpus_1.iq.fu_full::SimdFloatReduceCmp            0      0.00%     92.55% # attempts to use FU when none available
system.switch_cpus_1.iq.fu_full::SimdAes            0      0.00%     92.55% # attempts to use FU when none available
system.switch_cpus_1.iq.fu_full::SimdAesMix            0      0.00%     92.55% # attempts to use FU when none available
system.switch_cpus_1.iq.fu_full::SimdSha1Hash            0      0.00%     92.55% # attempts to use FU when none available
system.switch_cpus_1.iq.fu_full::SimdSha1Hash2            0      0.00%     92.55% # attempts to use FU when none available
system.switch_cpus_1.iq.fu_full::SimdSha256Hash            0      0.00%     92.55% # attempts to use FU when none available
system.switch_cpus_1.iq.fu_full::SimdSha256Hash2            0      0.00%     92.55% # attempts to use FU when none available
system.switch_cpus_1.iq.fu_full::SimdShaSigma2            0      0.00%     92.55% # attempts to use FU when none available
system.switch_cpus_1.iq.fu_full::SimdShaSigma3            0      0.00%     92.55% # attempts to use FU when none available
system.switch_cpus_1.iq.fu_full::SimdPredAlu            0      0.00%     92.55% # attempts to use FU when none available
system.switch_cpus_1.iq.fu_full::MemRead      1260165      4.89%     97.44% # attempts to use FU when none available
system.switch_cpus_1.iq.fu_full::MemWrite       237050      0.92%     98.36% # attempts to use FU when none available
system.switch_cpus_1.iq.fu_full::FloatMemRead       219473      0.85%     99.21% # attempts to use FU when none available
system.switch_cpus_1.iq.fu_full::FloatMemWrite       203952      0.79%    100.00% # attempts to use FU when none available
system.switch_cpus_1.iq.fu_full::IprAccess            0      0.00%    100.00% # attempts to use FU when none available
system.switch_cpus_1.iq.fu_full::InstPrefetch            0      0.00%    100.00% # attempts to use FU when none available
system.switch_cpus_1.iq.int_alu_accesses   1795847712                       # Number of integer alu accesses
system.switch_cpus_1.iq.int_inst_queue_reads   4378764945                       # Number of integer instruction queue reads
system.switch_cpus_1.iq.int_inst_queue_wakeup_accesses   1746915372                       # Number of integer instruction queue wakeup accesses
system.switch_cpus_1.iq.int_inst_queue_writes   2212759838                       # Number of integer instruction queue writes
system.switch_cpus_1.iq.iqInstsAdded       2320927928                       # Number of instructions added to the IQ (excludes non-spec)
system.switch_cpus_1.iq.iqInstsIssued      2175327607                       # Number of instructions issued
system.switch_cpus_1.iq.iqNonSpecInstsAdded       447511                       # Number of non-speculative instructions added to the IQ
system.switch_cpus_1.iq.iqSquashedInstsExamined    408197935                       # Number of squashed instructions iterated over during squash; mainly for profiling
system.switch_cpus_1.iq.iqSquashedInstsIssued      3748088                       # Number of squashed instructions issued
system.switch_cpus_1.iq.iqSquashedNonSpecRemoved       446733                       # Number of squashed non-spec instructions that were removed
system.switch_cpus_1.iq.iqSquashedOperandsExamined    570447181                       # Number of squashed operands that are examined and possibly removed from graph
system.switch_cpus_1.iq.issued_per_cycle::samples    787539264                       # Number of insts issued each cycle
system.switch_cpus_1.iq.issued_per_cycle::mean     2.762183                       # Number of insts issued each cycle
system.switch_cpus_1.iq.issued_per_cycle::stdev     2.501538                       # Number of insts issued each cycle
system.switch_cpus_1.iq.issued_per_cycle::underflows            0      0.00%      0.00% # Number of insts issued each cycle
system.switch_cpus_1.iq.issued_per_cycle::0    245596844     31.19%     31.19% # Number of insts issued each cycle
system.switch_cpus_1.iq.issued_per_cycle::1     64370398      8.17%     39.36% # Number of insts issued each cycle
system.switch_cpus_1.iq.issued_per_cycle::2     86040498     10.93%     50.28% # Number of insts issued each cycle
system.switch_cpus_1.iq.issued_per_cycle::3     87331117     11.09%     61.37% # Number of insts issued each cycle
system.switch_cpus_1.iq.issued_per_cycle::4     85466615     10.85%     72.23% # Number of insts issued each cycle
system.switch_cpus_1.iq.issued_per_cycle::5     75703187      9.61%     81.84% # Number of insts issued each cycle
system.switch_cpus_1.iq.issued_per_cycle::6     72240647      9.17%     91.01% # Number of insts issued each cycle
system.switch_cpus_1.iq.issued_per_cycle::7     43263079      5.49%     96.50% # Number of insts issued each cycle
system.switch_cpus_1.iq.issued_per_cycle::8     27526879      3.50%    100.00% # Number of insts issued each cycle
system.switch_cpus_1.iq.issued_per_cycle::overflows            0      0.00%    100.00% # Number of insts issued each cycle
system.switch_cpus_1.iq.issued_per_cycle::min_value            0                       # Number of insts issued each cycle
system.switch_cpus_1.iq.issued_per_cycle::max_value            8                       # Number of insts issued each cycle
system.switch_cpus_1.iq.issued_per_cycle::total    787539264                       # Number of insts issued each cycle
system.switch_cpus_1.iq.rate                 2.757973                       # Inst issue rate
system.switch_cpus_1.iq.vec_alu_accesses            0                       # Number of vector alu accesses
system.switch_cpus_1.iq.vec_inst_queue_reads            0                       # Number of vector instruction queue reads
system.switch_cpus_1.iq.vec_inst_queue_wakeup_accesses            0                       # Number of vector instruction queue wakeup accesses
system.switch_cpus_1.iq.vec_inst_queue_writes            0                       # Number of vector instruction queue writes
system.switch_cpus_1.itb.rdAccesses                 0                       # TLB accesses on read requests
system.switch_cpus_1.itb.rdMisses                   0                       # TLB misses on read requests
system.switch_cpus_1.itb.wrAccesses         194211154                       # TLB accesses on write requests
system.switch_cpus_1.itb.wrMisses                3758                       # TLB misses on write requests
system.switch_cpus_1.memDep0.conflictingLoads     18418491                       # Number of conflicting loads.
system.switch_cpus_1.memDep0.conflictingStores      4800884                       # Number of conflicting stores.
system.switch_cpus_1.memDep0.insertedLoads    282936725                       # Number of loads inserted to the mem dependence unit.
system.switch_cpus_1.memDep0.insertedStores    132826785                       # Number of stores inserted to the mem dependence unit.
system.switch_cpus_1.misc_regfile_reads     855812409                       # number of misc regfile reads
system.switch_cpus_1.misc_regfile_writes           63                       # number of misc regfile writes
system.switch_cpus_1.numCycles              788741506                       # number of cpu cycles simulated
system.switch_cpus_1.numWorkItemsCompleted            0                       # number of work items this cpu completed
system.switch_cpus_1.numWorkItemsStarted            0                       # number of work items this cpu started
system.switch_cpus_1.rename.BlockCycles     138319822                       # Number of cycles rename is blocking
system.switch_cpus_1.rename.CommittedMaps   2145497261                       # Number of HB maps that are committed
system.switch_cpus_1.rename.IQFullEvents      8041669                       # Number of times rename has blocked due to IQ full
system.switch_cpus_1.rename.IdleCycles      209708614                       # Number of cycles rename is idle
system.switch_cpus_1.rename.LQFullEvents     11597610                       # Number of times rename has blocked due to LQ full
system.switch_cpus_1.rename.ROBFullEvents      2380731                       # Number of times rename has blocked due to ROB full
system.switch_cpus_1.rename.RenameLookups   5958469498                       # Number of register rename lookups that rename has made
system.switch_cpus_1.rename.RenamedInsts   2434250649                       # Number of instructions processed by rename
system.switch_cpus_1.rename.RenamedOperands   2718868528                       # Number of destination operands rename has renamed
system.switch_cpus_1.rename.RunCycles       375921800                       # Number of cycles rename is running
system.switch_cpus_1.rename.SQFullEvents     26738768                       # Number of times rename has blocked due to SQ full
system.switch_cpus_1.rename.SquashCycles     11975192                       # Number of cycles rename is squashing
system.switch_cpus_1.rename.UnblockCycles     51525804                       # Number of cycles rename is unblocking
system.switch_cpus_1.rename.UndoneMaps      573371216                       # Number of HB maps that are undone due to squashing
system.switch_cpus_1.rename.fp_rename_lookups    698221876                       # Number of floating rename lookups
system.switch_cpus_1.rename.int_rename_lookups   3085833288                       # Number of integer rename lookups
system.switch_cpus_1.rename.serializeStallCycles        88025                       # count of cycles rename stalled for serializing inst
system.switch_cpus_1.rename.serializingInsts        24103                       # count of serializing insts renamed
system.switch_cpus_1.rename.skidInsts        50869087                       # count of insts added to the skid buffer
system.switch_cpus_1.rename.tempSerializingInsts        24702                       # count of temporary serializing insts renamed
system.switch_cpus_1.rob.rob_reads         2925344776                       # The number of ROB reads
system.switch_cpus_1.rob.rob_writes        4701636556                       # The number of ROB writes
system.switch_cpus_1.timesIdled                242145                       # Number of times that the entire CPU went into an idle state and unscheduled itself
system.tol2bus.snoop_filter.hit_multi_requests          291                       # Number of requests hitting in the snoop filter with multiple (>1) holders of the requested data.
system.tol2bus.snoop_filter.hit_multi_snoops            0                       # Number of snoops hitting in the snoop filter with multiple (>1) holders of the requested data.
system.tol2bus.snoop_filter.hit_single_requests      2280833                       # Number of requests hitting in the snoop filter with a single holder of the requested data.
system.tol2bus.snoop_filter.hit_single_snoops         1654                       # Number of snoops hitting in the snoop filter with a single holder of the requested data.
system.tol2bus.snoop_filter.tot_requests      4382810                       # Total number of requests made to the snoop filter.
system.tol2bus.snoop_filter.tot_snoops           1654                       # Total number of snoops made to the snoop filter.
system.tol3bus.snoop_filter.hit_multi_requests            0                       # Number of requests hitting in the snoop filter with multiple (>1) holders of the requested data.
system.tol3bus.snoop_filter.hit_multi_snoops            0                       # Number of snoops hitting in the snoop filter with multiple (>1) holders of the requested data.
system.tol3bus.snoop_filter.hit_single_requests      1355456                       # Number of requests hitting in the snoop filter with a single holder of the requested data.
system.tol3bus.snoop_filter.hit_single_snoops        36558                       # Number of snoops hitting in the snoop filter with a single holder of the requested data.
system.tol3bus.snoop_filter.tot_requests      2543794                       # Total number of requests made to the snoop filter.
system.tol3bus.snoop_filter.tot_snoops          36558                       # Total number of snoops made to the snoop filter.
system.membus.trans_dist::ReadResp             901785                       # Transaction distribution
system.membus.trans_dist::WritebackDirty       304353                       # Transaction distribution
system.membus.trans_dist::CleanEvict           747490                       # Transaction distribution
system.membus.trans_dist::UpgradeReq                7                       # Transaction distribution
system.membus.trans_dist::ReadExReq            149754                       # Transaction distribution
system.membus.trans_dist::ReadExResp           149754                       # Transaction distribution
system.membus.trans_dist::ReadSharedReq        901785                       # Transaction distribution
system.membus.pkt_count_system.l3.mem_side::system.mem_ctrls.port      3154928                       # Packet count per connected master and slave (bytes)
system.membus.pkt_count_system.l3.mem_side::total      3154928                       # Packet count per connected master and slave (bytes)
system.membus.pkt_count::total                3154928                       # Packet count per connected master and slave (bytes)
system.membus.pkt_size_system.l3.mem_side::system.mem_ctrls.port     86777088                       # Cumulative packet size per connected master and slave (bytes)
system.membus.pkt_size_system.l3.mem_side::total     86777088                       # Cumulative packet size per connected master and slave (bytes)
system.membus.pkt_size::total                86777088                       # Cumulative packet size per connected master and slave (bytes)
system.membus.snoops                                0                       # Total snoops (count)
system.membus.snoopTraffic                          0                       # Total snoop traffic (bytes)
system.membus.snoop_fanout::samples           1051546                       # Request fanout histogram
system.membus.snoop_fanout::mean                    0                       # Request fanout histogram
system.membus.snoop_fanout::stdev                   0                       # Request fanout histogram
system.membus.snoop_fanout::underflows              0      0.00%      0.00% # Request fanout histogram
system.membus.snoop_fanout::0                 1051546    100.00%    100.00% # Request fanout histogram
system.membus.snoop_fanout::1                       0      0.00%    100.00% # Request fanout histogram
system.membus.snoop_fanout::overflows               0      0.00%    100.00% # Request fanout histogram
system.membus.snoop_fanout::min_value               0                       # Request fanout histogram
system.membus.snoop_fanout::max_value               0                       # Request fanout histogram
system.membus.snoop_fanout::total             1051546                       # Request fanout histogram
system.membus.reqLayer2.occupancy          3578552500                       # Layer occupancy (ticks)
system.membus.reqLayer2.utilization               0.9                       # Layer utilization (%)
system.membus.respLayer1.occupancy         5561870500                       # Layer occupancy (ticks)
system.membus.respLayer1.utilization              1.4                       # Layer utilization (%)
system.membus.power_state.pwrStateResidencyTicks::UNDEFINED 1653864375000                       # Cumulative time (in ticks) in various power states
system.switch_cpus_1.dtb.walker.power_state.pwrStateResidencyTicks::UNDEFINED 1653864375000                       # Cumulative time (in ticks) in various power states
system.switch_cpus_1.itb.walker.power_state.pwrStateResidencyTicks::UNDEFINED 1653864375000                       # Cumulative time (in ticks) in various power states
system.switch_cpus_1.power_state.pwrStateResidencyTicks::OFF 1653864375000                       # Cumulative time (in ticks) in various power states
system.switch_cpus.dtb.walker.power_state.pwrStateResidencyTicks::UNDEFINED 1653864375000                       # Cumulative time (in ticks) in various power states
system.switch_cpus.itb.walker.power_state.pwrStateResidencyTicks::UNDEFINED 1653864375000                       # Cumulative time (in ticks) in various power states
system.switch_cpus.power_state.numTransitions            1                       # Number of power state transitions
system.switch_cpus.power_state.pwrStateResidencyTicks::OFF 1653864375000                       # Cumulative time (in ticks) in various power states
system.tol2bus.trans_dist::ReadResp           1898638                       # Transaction distribution
system.tol2bus.trans_dist::WritebackDirty       713128                       # Transaction distribution
system.tol2bus.trans_dist::WritebackClean       832673                       # Transaction distribution
system.tol2bus.trans_dist::CleanEvict          926228                       # Transaction distribution
system.tol2bus.trans_dist::UpgradeReq          179010                       # Transaction distribution
system.tol2bus.trans_dist::UpgradeResp         179010                       # Transaction distribution
system.tol2bus.trans_dist::ReadExReq           203264                       # Transaction distribution
system.tol2bus.trans_dist::ReadExResp          203264                       # Transaction distribution
system.tol2bus.trans_dist::ReadCleanReq       1898638                       # Transaction distribution
system.tol2bus.pkt_count_system.cpu.icache.mem_side::system.l2.cpu_side      2498024                       # Packet count per connected master and slave (bytes)
system.tol2bus.pkt_count_system.cpu.dcache.mem_side::system.l2.cpu_side      4165695                       # Packet count per connected master and slave (bytes)
system.tol2bus.pkt_count::total               6663719                       # Packet count per connected master and slave (bytes)
system.tol2bus.pkt_size_system.cpu.icache.mem_side::system.l2.cpu_side    106582208                       # Cumulative packet size per connected master and slave (bytes)
system.tol2bus.pkt_size_system.cpu.dcache.mem_side::system.l2.cpu_side    105694272                       # Cumulative packet size per connected master and slave (bytes)
system.tol2bus.pkt_size::total              212276480                       # Cumulative packet size per connected master and slave (bytes)
system.tol2bus.snoops                          370134                       # Total snoops (count)
system.tol2bus.snoopTraffic                  21176512                       # Total snoop traffic (bytes)
system.tol2bus.snoop_fanout::samples          2651043                       # Request fanout histogram
system.tol2bus.snoop_fanout::mean            0.000734                       # Request fanout histogram
system.tol2bus.snoop_fanout::stdev           0.027083                       # Request fanout histogram
system.tol2bus.snoop_fanout::underflows             0      0.00%      0.00% # Request fanout histogram
system.tol2bus.snoop_fanout::0                2649097     99.93%     99.93% # Request fanout histogram
system.tol2bus.snoop_fanout::1                   1946      0.07%    100.00% # Request fanout histogram
system.tol2bus.snoop_fanout::2                      0      0.00%    100.00% # Request fanout histogram
system.tol2bus.snoop_fanout::3                      0      0.00%    100.00% # Request fanout histogram
system.tol2bus.snoop_fanout::4                      0      0.00%    100.00% # Request fanout histogram
system.tol2bus.snoop_fanout::overflows              0      0.00%    100.00% # Request fanout histogram
system.tol2bus.snoop_fanout::min_value              0                       # Request fanout histogram
system.tol2bus.snoop_fanout::max_value              1                       # Request fanout histogram
system.tol2bus.snoop_fanout::total            2651043                       # Request fanout histogram
system.tol2bus.reqLayer0.occupancy         3406326000                       # Layer occupancy (ticks)
system.tol2bus.reqLayer0.utilization              0.9                       # Layer utilization (%)
system.tol2bus.respLayer1.occupancy        1993362460                       # Layer occupancy (ticks)
system.tol2bus.respLayer1.utilization             0.5                       # Layer utilization (%)
system.tol2bus.respLayer0.occupancy        1249016498                       # Layer occupancy (ticks)
system.tol2bus.respLayer0.utilization             0.3                       # Layer utilization (%)
system.tol2bus.power_state.pwrStateResidencyTicks::UNDEFINED 1653864375000                       # Cumulative time (in ticks) in various power states
system.voltage_domain.voltage                       1                       # Voltage in Volts
system.clk_domain.clock                          1000                       # Clock period in ticks
system.l2.demand_hits::.switch_cpus_1.inst       829798                       # number of demand (read+write) hits
system.l2.demand_hits::.switch_cpus_1.data        83644                       # number of demand (read+write) hits
system.l2.demand_hits::total                   913442                       # number of demand (read+write) hits
system.l2.overall_hits::.switch_cpus_1.inst       829798                       # number of overall hits
system.l2.overall_hits::.switch_cpus_1.data        83644                       # number of overall hits
system.l2.overall_hits::total                  913442                       # number of overall hits
system.l2.demand_misses::.switch_cpus_1.inst         2876                       # number of demand (read+write) misses
system.l2.demand_misses::.switch_cpus_1.data      1185581                       # number of demand (read+write) misses
system.l2.demand_misses::total                1188457                       # number of demand (read+write) misses
system.l2.overall_misses::.switch_cpus_1.inst         2876                       # number of overall misses
system.l2.overall_misses::.switch_cpus_1.data      1185581                       # number of overall misses
system.l2.overall_misses::total               1188457                       # number of overall misses
system.l2.demand_miss_latency::.switch_cpus_1.inst    260135000                       # number of demand (read+write) miss cycles
system.l2.demand_miss_latency::.switch_cpus_1.data 103705044500                       # number of demand (read+write) miss cycles
system.l2.demand_miss_latency::total     103965179500                       # number of demand (read+write) miss cycles
system.l2.overall_miss_latency::.switch_cpus_1.inst    260135000                       # number of overall miss cycles
system.l2.overall_miss_latency::.switch_cpus_1.data 103705044500                       # number of overall miss cycles
system.l2.overall_miss_latency::total    103965179500                       # number of overall miss cycles
system.l2.demand_accesses::.switch_cpus_1.inst       832674                       # number of demand (read+write) accesses
system.l2.demand_accesses::.switch_cpus_1.data      1269225                       # number of demand (read+write) accesses
system.l2.demand_accesses::total              2101899                       # number of demand (read+write) accesses
system.l2.overall_accesses::.switch_cpus_1.inst       832674                       # number of overall (read+write) accesses
system.l2.overall_accesses::.switch_cpus_1.data      1269225                       # number of overall (read+write) accesses
system.l2.overall_accesses::total             2101899                       # number of overall (read+write) accesses
[...]
system.cpu.dcache.demand_miss_latency::total 478528994042                       # number of demand (read+write) miss cycles
system.cpu.dcache.overall_miss_latency::.switch_cpus.data    643910000                       # number of overall miss cycles
system.cpu.dcache.overall_miss_latency::.switch_cpus_1.data 477885084042                       # number of overall miss cycles
system.cpu.dcache.overall_miss_latency::total 478528994042                       # number of overall miss cycles
system.cpu.dcache.demand_accesses::.cpu.data    398468375                       # number of demand (read+write) accesses
system.cpu.dcache.demand_accesses::.switch_cpus.data     19936531                       # number of demand (read+write) accesses
system.cpu.dcache.demand_accesses::.switch_cpus_1.data    346783362                       # number of demand (read+write) accesses
system.cpu.dcache.demand_accesses::total    765188268                       # number of demand (read+write) accesses
system.cpu.dcache.overall_accesses::.cpu.data    398468375                       # number of overall (read+write) accesses
system.cpu.dcache.overall_accesses::.switch_cpus.data     19936531                       # number of overall (read+write) accesses
system.cpu.dcache.overall_accesses::.switch_cpus_1.data    346783362                       # number of overall (read+write) accesses
system.cpu.dcache.overall_accesses::total    765188268                       # number of overall (read+write) accesses
system.cpu.dcache.demand_miss_rate::.cpu.data     0.000575                       # miss rate for demand accesses
system.cpu.dcache.demand_miss_rate::.switch_cpus.data     0.000475                       # miss rate for demand accesses
system.cpu.dcache.demand_miss_rate::.switch_cpus_1.data     0.019442                       # miss rate for demand accesses
system.cpu.dcache.demand_miss_rate::total     0.009123                       # miss rate for demand accesses
system.cpu.dcache.overall_miss_rate::.cpu.data     0.000575                       # miss rate for overall accesses
system.cpu.dcache.overall_miss_rate::.switch_cpus.data     0.000475                       # miss rate for overall accesses
system.cpu.dcache.overall_miss_rate::.switch_cpus_1.data     0.019442                       # miss rate for overall accesses
system.cpu.dcache.overall_miss_rate::total     0.009123                       # miss rate for overall accesses
system.cpu.dcache.demand_avg_miss_latency::.switch_cpus.data 68037.827557                       # average overall miss latency
system.cpu.dcache.demand_avg_miss_latency::.switch_cpus_1.data 70879.054377                       # average overall miss latency
system.cpu.dcache.demand_avg_miss_latency::total 68547.086638                       # average overall miss latency
system.cpu.dcache.overall_avg_miss_latency::.switch_cpus.data 68037.827557                       # average overall miss latency
system.cpu.dcache.overall_avg_miss_latency::.switch_cpus_1.data 70879.054377                       # average overall miss latency
system.cpu.dcache.overall_avg_miss_latency::total 68547.086638                       # average overall miss latency
system.cpu.dcache.blocked_cycles::no_mshrs      8573653                       # number of cycles access was blocked
system.cpu.dcache.blocked_cycles::no_targets         7197                       # number of cycles access was blocked
system.cpu.dcache.blocked::no_mshrs            209381                       # number of cycles access was blocked
system.cpu.dcache.blocked::no_targets              74                       # number of cycles access was blocked
system.cpu.dcache.avg_blocked_cycles::no_mshrs    40.947617                       # average number of cycles each access was blocked
system.cpu.dcache.avg_blocked_cycles::no_targets    97.256757                       # average number of cycles each access was blocked
system.cpu.dcache.writebacks::.writebacks       512250                       # number of writebacks
system.cpu.dcache.writebacks::total            512250                       # number of writebacks
system.cpu.dcache.demand_mshr_hits::.switch_cpus_1.data      5295599                       # number of demand (read+write) MSHR hits
system.cpu.dcache.demand_mshr_hits::total      5295599                       # number of demand (read+write) MSHR hits
system.cpu.dcache.overall_mshr_hits::.switch_cpus_1.data      5295599                       # number of overall MSHR hits
system.cpu.dcache.overall_mshr_hits::total      5295599                       # number of overall MSHR hits
system.cpu.dcache.demand_mshr_misses::.switch_cpus.data         9464                       # number of demand (read+write) MSHR misses
system.cpu.dcache.demand_mshr_misses::.switch_cpus_1.data      1446662                       # number of demand (read+write) MSHR misses
system.cpu.dcache.demand_mshr_misses::total      1456126                       # number of demand (read+write) MSHR misses
system.cpu.dcache.overall_mshr_misses::.switch_cpus.data         9464                       # number of overall MSHR misses
system.cpu.dcache.overall_mshr_misses::.switch_cpus_1.data      1446662                       # number of overall MSHR misses
system.cpu.dcache.overall_mshr_misses::total      1456126                       # number of overall MSHR misses
system.cpu.dcache.demand_mshr_miss_latency::.switch_cpus.data    634446000                       # number of demand (read+write) MSHR miss cycles
system.cpu.dcache.demand_mshr_miss_latency::.switch_cpus_1.data 111334890542                       # number of demand (read+write) MSHR miss cycles
system.cpu.dcache.demand_mshr_miss_latency::total 111969336542                       # number of demand (read+write) MSHR miss cycles
system.cpu.dcache.overall_mshr_miss_latency::.switch_cpus.data    634446000                       # number of overall MSHR miss cycles
system.cpu.dcache.overall_mshr_miss_latency::.switch_cpus_1.data 111334890542                       # number of overall MSHR miss cycles
system.cpu.dcache.overall_mshr_miss_latency::total 111969336542                       # number of overall MSHR miss cycles
system.cpu.dcache.demand_mshr_miss_rate::.switch_cpus.data     0.000475                       # mshr miss rate for demand accesses
system.cpu.dcache.demand_mshr_miss_rate::.switch_cpus_1.data     0.004172                       # mshr miss rate for demand accesses
system.cpu.dcache.demand_mshr_miss_rate::total     0.001903                       # mshr miss rate for demand accesses
system.cpu.dcache.overall_mshr_miss_rate::.switch_cpus.data     0.000475                       # mshr miss rate for overall accesses
system.cpu.dcache.overall_mshr_miss_rate::.switch_cpus_1.data     0.004172                       # mshr miss rate for overall accesses
system.cpu.dcache.overall_mshr_miss_rate::total     0.001903                       # mshr miss rate for overall accesses
system.cpu.dcache.demand_avg_mshr_miss_latency::.switch_cpus.data 67037.827557                       # average overall mshr miss latency
system.cpu.dcache.demand_avg_mshr_miss_latency::.switch_cpus_1.data 76959.850015                       # average overall mshr miss latency
system.cpu.dcache.demand_avg_mshr_miss_latency::total 76895.362449                       # average overall mshr miss latency
system.cpu.dcache.overall_avg_mshr_miss_latency::.switch_cpus.data 67037.827557                       # average overall mshr miss latency
system.cpu.dcache.overall_avg_mshr_miss_latency::.switch_cpus_1.data 76959.850015                       # average overall mshr miss latency
system.cpu.dcache.overall_avg_mshr_miss_latency::total 76895.362449                       # average overall mshr miss latency
system.cpu.dcache.replacements                1505310                       # number of replacements
system.cpu.dcache.ReadReq_hits::.cpu.data    222565313                       # number of ReadReq hits
system.cpu.dcache.ReadReq_hits::.switch_cpus.data     11115150                       # number of ReadReq hits
system.cpu.dcache.ReadReq_hits::.switch_cpus_1.data    227500937                       # number of ReadReq hits
system.cpu.dcache.ReadReq_hits::total       461181400                       # number of ReadReq hits
system.cpu.dcache.ReadReq_misses::.cpu.data       103833                       # number of ReadReq misses
system.cpu.dcache.ReadReq_misses::.switch_cpus.data         4642                       # number of ReadReq misses
system.cpu.dcache.ReadReq_misses::.switch_cpus_1.data      6359987                       # number of ReadReq misses
system.cpu.dcache.ReadReq_misses::total       6468462                       # number of ReadReq misses
system.cpu.dcache.ReadReq_miss_latency::.switch_cpus.data    159587000                       # number of ReadReq miss cycles
system.cpu.dcache.ReadReq_miss_latency::.switch_cpus_1.data 457166615000                       # number of ReadReq miss cycles
system.cpu.dcache.ReadReq_miss_latency::total 457326202000                       # number of ReadReq miss cycles
system.cpu.dcache.ReadReq_accesses::.cpu.data    222669146                       # number of ReadReq accesses(hits+misses)
system.cpu.dcache.ReadReq_accesses::.switch_cpus.data     11119792                       # number of ReadReq accesses(hits+misses)
system.cpu.dcache.ReadReq_accesses::.switch_cpus_1.data    233860924                       # number of ReadReq accesses(hits+misses)
system.cpu.dcache.ReadReq_accesses::total    467649862                       # number of ReadReq accesses(hits+misses)
system.cpu.dcache.ReadReq_miss_rate::.cpu.data     0.000466                       # miss rate for ReadReq accesses
system.cpu.dcache.ReadReq_miss_rate::.switch_cpus.data     0.000417                       # miss rate for ReadReq accesses
system.cpu.dcache.ReadReq_miss_rate::.switch_cpus_1.data     0.027196                       # miss rate for ReadReq accesses
system.cpu.dcache.ReadReq_miss_rate::total     0.013832                       # miss rate for ReadReq accesses
system.cpu.dcache.ReadReq_avg_miss_latency::.switch_cpus.data 34378.931495                       # average ReadReq miss latency
system.cpu.dcache.ReadReq_avg_miss_latency::.switch_cpus_1.data 71881.690167                       # average ReadReq miss latency
system.cpu.dcache.ReadReq_avg_miss_latency::total 70700.918085                       # average ReadReq miss latency
system.cpu.dcache.ReadReq_mshr_hits::.switch_cpus_1.data      5294025                       # number of ReadReq MSHR hits
system.cpu.dcache.ReadReq_mshr_hits::total      5294025                       # number of ReadReq MSHR hits
system.cpu.dcache.ReadReq_mshr_misses::.switch_cpus.data         4642                       # number of ReadReq MSHR misses
system.cpu.dcache.ReadReq_mshr_misses::.switch_cpus_1.data      1065962                       # number of ReadReq MSHR misses
system.cpu.dcache.ReadReq_mshr_misses::total      1070604                       # number of ReadReq MSHR misses
system.cpu.dcache.ReadReq_mshr_miss_latency::.switch_cpus.data    154945000                       # number of ReadReq MSHR miss cycles
system.cpu.dcache.ReadReq_mshr_miss_latency::.switch_cpus_1.data  90998783500                       # number of ReadReq MSHR miss cycles
system.cpu.dcache.ReadReq_mshr_miss_latency::total  91153728500                       # number of ReadReq MSHR miss cycles
system.cpu.dcache.ReadReq_mshr_miss_rate::.switch_cpus.data     0.000417                       # mshr miss rate for ReadReq accesses
system.cpu.dcache.ReadReq_mshr_miss_rate::.switch_cpus_1.data     0.004558                       # mshr miss rate for ReadReq accesses
system.cpu.dcache.ReadReq_mshr_miss_rate::total     0.002289                       # mshr miss rate for ReadReq accesses
system.cpu.dcache.ReadReq_avg_mshr_miss_latency::.switch_cpus.data 33378.931495                       # average ReadReq mshr miss latency
system.cpu.dcache.ReadReq_avg_mshr_miss_latency::.switch_cpus_1.data 85367.755605                       # average ReadReq mshr miss latency
system.cpu.dcache.ReadReq_avg_mshr_miss_latency::total 85142.338811                       # average ReadReq mshr miss latency
system.cpu.dcache.WriteReq_hits::.cpu.data    175673761                       # number of WriteReq hits
system.cpu.dcache.WriteReq_hits::.switch_cpus.data      8811917                       # number of WriteReq hits
system.cpu.dcache.WriteReq_hits::.switch_cpus_1.data    112540164                       # number of WriteReq hits
system.cpu.dcache.WriteReq_hits::total      297025842                       # number of WriteReq hits
system.cpu.dcache.WriteReq_misses::.cpu.data       125468                       # number of WriteReq misses
system.cpu.dcache.WriteReq_misses::.switch_cpus.data         4822                       # number of WriteReq misses
system.cpu.dcache.WriteReq_misses::.switch_cpus_1.data       382274                       # number of WriteReq misses
system.cpu.dcache.WriteReq_misses::total       512564                       # number of WriteReq misses
system.cpu.dcache.WriteReq_miss_latency::.switch_cpus.data    484323000                       # number of WriteReq miss cycles
system.cpu.dcache.WriteReq_miss_latency::.switch_cpus_1.data  20718469042                       # number of WriteReq miss cycles
system.cpu.dcache.WriteReq_miss_latency::total  21202792042                       # number of WriteReq miss cycles
system.cpu.dcache.WriteReq_accesses::.cpu.data    175799229                       # number of WriteReq accesses(hits+misses)
system.cpu.dcache.WriteReq_accesses::.switch_cpus.data      8816739                       # number of WriteReq accesses(hits+misses)
system.cpu.dcache.WriteReq_accesses::.switch_cpus_1.data    112922438                       # number of WriteReq accesses(hits+misses)
system.cpu.dcache.WriteReq_accesses::total    297538406                       # number of WriteReq accesses(hits+misses)
system.cpu.dcache.WriteReq_miss_rate::.cpu.data     0.000714                       # miss rate for WriteReq accesses
system.cpu.dcache.WriteReq_miss_rate::.switch_cpus.data     0.000547                       # miss rate for WriteReq accesses
system.cpu.dcache.WriteReq_miss_rate::.switch_cpus_1.data     0.003385                       # miss rate for WriteReq accesses
system.cpu.dcache.WriteReq_miss_rate::total     0.001723                       # miss rate for WriteReq accesses
system.cpu.dcache.WriteReq_avg_miss_latency::.switch_cpus.data 100440.273745                       # average WriteReq miss latency
system.cpu.dcache.WriteReq_avg_miss_latency::.switch_cpus_1.data 54197.954980                       # average WriteReq miss latency
system.cpu.dcache.WriteReq_avg_miss_latency::total 41366.135823                       # average WriteReq miss latency
system.cpu.dcache.WriteReq_mshr_hits::.switch_cpus_1.data         1574                       # number of WriteReq MSHR hits
system.cpu.dcache.WriteReq_mshr_hits::total         1574                       # number of WriteReq MSHR hits
system.cpu.dcache.WriteReq_mshr_misses::.switch_cpus.data         4822                       # number of WriteReq MSHR misses
system.cpu.dcache.WriteReq_mshr_misses::.switch_cpus_1.data       380700                       # number of WriteReq MSHR misses
system.cpu.dcache.WriteReq_mshr_misses::total       385522                       # number of WriteReq MSHR misses
system.cpu.dcache.WriteReq_mshr_miss_latency::.switch_cpus.data    479501000                       # number of WriteReq MSHR miss cycles
system.cpu.dcache.WriteReq_mshr_miss_latency::.switch_cpus_1.data  20336107042                       # number of WriteReq MSHR miss cycles
system.cpu.dcache.WriteReq_mshr_miss_latency::total  20815608042                       # number of WriteReq MSHR miss cycles
system.cpu.dcache.WriteReq_mshr_miss_rate::.switch_cpus.data     0.000547                       # mshr miss rate for WriteReq accesses
system.cpu.dcache.WriteReq_mshr_miss_rate::.switch_cpus_1.data     0.003371                       # mshr miss rate for WriteReq accesses
system.cpu.dcache.WriteReq_mshr_miss_rate::total     0.001296                       # mshr miss rate for WriteReq accesses
system.cpu.dcache.WriteReq_avg_mshr_miss_latency::.switch_cpus.data 99440.273745                       # average WriteReq mshr miss latency
system.cpu.dcache.WriteReq_avg_mshr_miss_latency::.switch_cpus_1.data 53417.670192                       # average WriteReq mshr miss latency
system.cpu.dcache.WriteReq_avg_mshr_miss_latency::total 53993.307884                       # average WriteReq mshr miss latency
system.cpu.dcache.power_state.pwrStateResidencyTicks::UNDEFINED 1653864375000                       # Cumulative time (in ticks) in various power states
system.cpu.dcache.tags.tagsinuse           511.995473                       # Cycle average of tags in use
system.cpu.dcache.tags.total_refs           759906498                       # Total number of references to valid blocks.
system.cpu.dcache.tags.sampled_refs           1505822                       # Sample count of references to valid blocks.
system.cpu.dcache.tags.avg_refs            504.645634                       # Average number of references to valid blocks.
system.cpu.dcache.tags.warmup_cycle              1500                       # Cycle when the warmup percentage was hit.
system.cpu.dcache.tags.occ_blocks::.cpu.data   371.810329                       # Average occupied blocks per requestor
system.cpu.dcache.tags.occ_blocks::.switch_cpus.data    22.368031                       # Average occupied blocks per requestor
system.cpu.dcache.tags.occ_blocks::.switch_cpus_1.data   117.817113                       # Average occupied blocks per requestor
system.cpu.dcache.tags.occ_percent::.cpu.data     0.726192                       # Average percentage of cache occupancy
system.cpu.dcache.tags.occ_percent::.switch_cpus.data     0.043688                       # Average percentage of cache occupancy
system.cpu.dcache.tags.occ_percent::.switch_cpus_1.data     0.230112                       # Average percentage of cache occupancy
system.cpu.dcache.tags.occ_percent::total     0.999991                       # Average percentage of cache occupancy
system.cpu.dcache.tags.occ_task_id_blocks::1024          512                       # Occupied blocks per task id
system.cpu.dcache.tags.age_task_id_blocks_1024::0            1                       # Occupied blocks per task id
system.cpu.dcache.tags.age_task_id_blocks_1024::1           10                       # Occupied blocks per task id
system.cpu.dcache.tags.age_task_id_blocks_1024::2          100                       # Occupied blocks per task id
system.cpu.dcache.tags.age_task_id_blocks_1024::3          228                       # Occupied blocks per task id
system.cpu.dcache.tags.age_task_id_blocks_1024::4          173                       # Occupied blocks per task id
system.cpu.dcache.tags.occ_task_id_percent::1024            1                       # Percentage of cache occupancy per task id
system.cpu.dcache.tags.tag_accesses        3062258894                       # Number of tag accesses
system.cpu.dcache.tags.data_accesses       3062258894                       # Number of data accesses
system.cpu.dcache.tags.power_state.pwrStateResidencyTicks::UNDEFINED 1653864375000                       # Cumulative time (in ticks) in various power states
system.cpu.power_state.numTransitions               2                       # Number of power state transitions
system.cpu.power_state.pwrStateResidencyTicks::ON 1169538802000                       # Cumulative time (in ticks) in various power states
system.cpu.power_state.pwrStateResidencyTicks::OFF 484325573000                       # Cumulative time (in ticks) in various power states

---------- End Simulation Statistics   ----------
