
---------- Begin Simulation Statistics ----------
final_tick                               1392349022000                       # Number of ticks from beginning of simulation (restored from checkpoints and never reset)
host_inst_rate                                 304271                       # Simulator instruction rate (inst/s)
host_mem_usage                                4562596                       # Number of bytes of host memory used
host_op_rate                                   515653                       # Simulator op (including micro ops) rate (op/s)
host_seconds                                  4600.63                       # Real time elapsed on the host
host_tick_rate                               56226776                       # Simulator tick rate (ticks/s)
sim_freq                                 1000000000000                       # Frequency of simulated ticks
sim_insts                                  1399837585                       # Number of instructions simulated
sim_ops                                    2372328795                       # Number of ops (including micro ops) simulated
sim_seconds                                  0.258679                       # Number of seconds simulated
sim_ticks                                258678702250                       # Number of ticks simulated
system.cpu.committedInsts                           0                       # Number of instructions committed
system.cpu.committedOps                             0                       # Number of ops (including micro ops) committed
system.cpu.dtb.rdAccesses                           0                       # TLB accesses on read requests
system.cpu.dtb.rdMisses                             0                       # TLB misses on read requests
system.cpu.dtb.wrAccesses                           0                       # TLB accesses on write requests
system.cpu.dtb.wrMisses                             0                       # TLB misses on write requests
system.cpu.idle_fraction                            0                       # Percentage of idle cycles
system.cpu.itb.rdAccesses                           0                       # TLB accesses on read requests
system.cpu.itb.rdMisses                             0                       # TLB misses on read requests
system.cpu.itb.wrAccesses                           0                       # TLB accesses on write requests
system.cpu.itb.wrMisses                             0                       # TLB misses on write requests
system.cpu.not_idle_fraction                        1                       # Percentage of non-idle cycles
system.cpu.numCycles                                0                       # number of cpu cycles simulated
system.cpu.numWorkItemsCompleted                    0                       # number of work items this cpu completed
system.cpu.numWorkItemsStarted                      0                       # number of work items this cpu started
system.cpu.num_busy_cycles                          0                       # Number of busy cycles
system.cpu.num_conditional_control_insts            0                       # number of instructions that are conditional controls
system.cpu.num_fp_alu_accesses                      0                       # Number of float alu accesses
system.cpu.num_fp_insts                             0                       # number of float instructions
system.cpu.num_fp_register_reads                    0                       # number of times the floating registers were read
system.cpu.num_fp_register_writes                   0                       # number of times the floating registers were written
system.cpu.num_func_calls                           0                       # number of times a function call or return occured
system.cpu.num_idle_cycles                          0                       # Number of idle cycles
system.cpu.num_int_alu_accesses                     0                       # Number of integer alu accesses
system.cpu.num_int_insts                            0                       # number of integer instructions
system.cpu.num_int_register_reads                   0                       # number of times the integer registers were read
system.cpu.num_int_register_writes                  0                       # number of times the integer registers were written
system.cpu.num_load_insts                           0                       # Number of load instructions
system.cpu.num_mem_refs                             0                       # number of memory refs
system.cpu.num_store_insts                          0                       # Number of store instructions
system.cpu.num_vec_alu_accesses                     0                       # Number of vector alu accesses
system.cpu.num_vec_insts                            0                       # number of vector instructions
system.cpu.num_vec_register_reads                   0                       # number of times the vector registers were read
system.cpu.num_vec_register_writes                  0                       # number of times the vector registers were written
system.cpu.op_class::No_OpClass                     0                       # Class of executed instruction
system.cpu.op_class::IntAlu                         0                       # Class of executed instruction
system.cpu.op_class::IntMult                        0                       # Class of executed instruction
system.cpu.op_class::IntDiv                         0                       # Class of executed instruction
system.cpu.op_class::FloatAdd                       0                       # Class of executed instruction
system.cpu.op_class::FloatCmp                       0                       # Class of executed instruction
system.cpu.op_class::FloatCvt                       0                       # Class of executed instruction
system.cpu.op_class::FloatMult                      0                       # Class of executed instruction
system.cpu.op_class::FloatMultAcc                   0                       # Class of executed instruction
system.cpu.op_class::FloatDiv                       0                       # Class of executed instruction
system.cpu.op_class::FloatMisc                      0                       # Class of executed instruction
system.cpu.op_class::FloatSqrt                      0                       # Class of executed instruction
system.cpu.op_class::SimdAdd                        0                       # Class of executed instruction
system.cpu.op_class::SimdAddAcc                     0                       # Class of executed instruction
system.cpu.op_class::SimdAlu                        0                       # Class of executed instruction
system.cpu.op_class::SimdCmp                        0                       # Class of executed instruction
system.cpu.op_class::SimdCvt                        0                       # Class of executed instruction
system.cpu.op_class::SimdMisc                       0                       # Class of executed instruction
system.cpu.op_class::SimdMult                       0                       # Class of executed instruction
system.cpu.op_class::SimdMultAcc                    0                       # Class of executed instruction
system.cpu.op_class::SimdShift                      0                       # Class of executed instruction
system.cpu.op_class::SimdShiftAcc                   0                       # Class of executed instruction
system.cpu.op_class::SimdDiv                        0                       # Class of executed instruction
system.cpu.op_class::SimdSqrt                       0                       # Class of executed instruction
system.cpu.op_class::SimdFloatAdd                   0                       # Class of executed instruction
system.cpu.op_class::SimdFloatAlu                   0                       # Class of executed instruction
system.cpu.op_class::SimdFloatCmp                   0                       # Class of executed instruction
system.cpu.op_class::SimdFloatCvt                   0                       # Class of executed instruction
system.cpu.op_class::SimdFloatDiv                   0                       # Class of executed instruction
system.cpu.op_class::SimdFloatMisc                  0                       # Class of executed instruction
system.cpu.op_class::SimdFloatMult                  0                       # Class of executed instruction
system.cpu.op_class::SimdFloatMultAcc               0                       # Class of executed instruction
system.cpu.op_class::SimdFloatSqrt                  0                       # Class of executed instruction
system.cpu.op_class::SimdReduceAdd                  0                       # Class of executed instruction
system.cpu.op_class::SimdReduceAlu                  0                       # Class of executed instruction
system.cpu.op_class::SimdReduceCmp                  0                       # Class of executed instruction
system.cpu.op_class::SimdFloatReduceAdd             0                       # Class of executed instruction
system.cpu.op_class::SimdFloatReduceCmp             0                       # Class of executed instruction
system.cpu.op_class::SimdAes                        0                       # Class of executed instruction
system.cpu.op_class::SimdAesMix                     0                       # Class of executed instruction
system.cpu.op_class::SimdSha1Hash                   0                       # Class of executed instruction
system.cpu.op_class::SimdSha1Hash2                  0                       # Class of executed instruction
system.cpu.op_class::SimdSha256Hash                 0                       # Class of executed instruction
system.cpu.op_class::SimdSha256Hash2                0                       # Class of executed instruction
system.cpu.op_class::SimdShaSigma2                  0                       # Class of executed instruction
system.cpu.op_class::SimdShaSigma3                  0                       # Class of executed instruction
system.cpu.op_class::SimdPredAlu                    0                       # Class of executed instruction
system.cpu.op_class::MemRead                        0                       # Class of executed instruction
system.cpu.op_class::MemWrite                       0                       # Class of executed instruction
system.cpu.op_class::FloatMemRead                   0                       # Class of executed instruction
system.cpu.op_class::FloatMemWrite                  0                       # Class of executed instruction
system.cpu.op_class::IprAccess                      0                       # Class of executed instruction
system.cpu.op_class::InstPrefetch                   0                       # Class of executed instruction
system.cpu.op_class::total                          0                       # Class of executed instruction
system.cpu.workload.numSyscalls                     6                       # Number of system calls
system.membus.snoop_filter.hit_multi_requests            0                       # Number of requests hitting in the snoop filter with multiple (>1) holders of the requested data.
system.membus.snoop_filter.hit_multi_snoops            0                       # Number of snoops hitting in the snoop filter with multiple (>1) holders of the requested data.
system.membus.snoop_filter.hit_single_requests       233992                       # Number of requests hitting in the snoop filter with a single holder of the requested data.
system.membus.snoop_filter.hit_single_snoops            0                       # Number of snoops hitting in the snoop filter with a single holder of the requested data.
system.membus.snoop_filter.tot_requests        468011                       # Total number of requests made to the snoop filter.
system.membus.snoop_filter.tot_snoops               0                       # Total number of snoops made to the snoop filter.
system.switch_cpus.committedInsts                   0                       # Number of instructions committed
system.switch_cpus.committedOps                     0                       # Number of ops (including micro ops) committed
system.switch_cpus.dtb.rdAccesses                   0                       # TLB accesses on read requests
system.switch_cpus.dtb.rdMisses                     0                       # TLB misses on read requests
system.switch_cpus.dtb.wrAccesses                   0                       # TLB accesses on write requests
system.switch_cpus.dtb.wrMisses                     0                       # TLB misses on write requests
system.switch_cpus.idle_fraction                    0                       # Percentage of idle cycles
system.switch_cpus.itb.rdAccesses                   0                       # TLB accesses on read requests
system.switch_cpus.itb.rdMisses                     0                       # TLB misses on read requests
system.switch_cpus.itb.wrAccesses                   0                       # TLB accesses on write requests
system.switch_cpus.itb.wrMisses                     0                       # TLB misses on write requests
system.switch_cpus.not_idle_fraction                1                       # Percentage of non-idle cycles
system.switch_cpus.numCycles                        0                       # number of cpu cycles simulated
system.switch_cpus.numWorkItemsCompleted            0                       # number of work items this cpu completed
system.switch_cpus.numWorkItemsStarted              0                       # number of work items this cpu started
system.switch_cpus.num_busy_cycles                  0                       # Number of busy cycles
system.switch_cpus.num_conditional_control_insts            0                       # number of instructions that are conditional controls
system.switch_cpus.num_fp_alu_accesses              0                       # Number of float alu accesses
system.switch_cpus.num_fp_insts                     0                       # number of float instructions
system.switch_cpus.num_fp_register_reads            0                       # number of times the floating registers were read
system.switch_cpus.num_fp_register_writes            0                       # number of times the floating registers were written
system.switch_cpus.num_func_calls                   0                       # number of times a function call or return occured
system.switch_cpus.num_idle_cycles                  0                       # Number of idle cycles
system.switch_cpus.num_int_alu_accesses             0                       # Number of integer alu accesses
system.switch_cpus.num_int_insts                    0                       # number of integer instructions
system.switch_cpus.num_int_register_reads            0                       # number of times the integer registers were read
system.switch_cpus.num_int_register_writes            0                       # number of times the integer registers were written
system.switch_cpus.num_load_insts                   0                       # Number of load instructions
system.switch_cpus.num_mem_refs                     0                       # number of memory refs
system.switch_cpus.num_store_insts                  0                       # Number of store instructions
system.switch_cpus.num_vec_alu_accesses             0                       # Number of vector alu accesses
system.switch_cpus.num_vec_insts                    0                       # number of vector instructions
system.switch_cpus.num_vec_register_reads            0                       # number of times the vector registers were read
system.switch_cpus.num_vec_register_writes            0                       # number of times the vector registers were written
system.switch_cpus.op_class::No_OpClass             0                       # Class of executed instruction
system.switch_cpus.op_class::IntAlu                 0                       # Class of executed instruction
system.switch_cpus.op_class::IntMult                0                       # Class of executed instruction
system.switch_cpus.op_class::IntDiv                 0                       # Class of executed instruction
system.switch_cpus.op_class::FloatAdd               0                       # Class of executed instruction
system.switch_cpus.op_class::FloatCmp               0                       # Class of executed instruction
system.switch_cpus.op_class::FloatCvt               0                       # Class of executed instruction
system.switch_cpus.op_class::FloatMult              0                       # Class of executed instruction
system.switch_cpus.op_class::FloatMultAcc            0                       # Class of executed instruction
system.switch_cpus.op_class::FloatDiv               0                       # Class of executed instruction
system.switch_cpus.op_class::FloatMisc              0                       # Class of executed instruction
system.switch_cpus.op_class::FloatSqrt              0                       # Class of executed instruction
system.switch_cpus.op_class::SimdAdd                0                       # Class of executed instruction
system.switch_cpus.op_class::SimdAddAcc             0                       # Class of executed instruction
system.switch_cpus.op_class::SimdAlu                0                       # Class of executed instruction
system.switch_cpus.op_class::SimdCmp                0                       # Class of executed instruction
system.switch_cpus.op_class::SimdCvt                0                       # Class of executed instruction
system.switch_cpus.op_class::SimdMisc               0                       # Class of executed instruction
system.switch_cpus.op_class::SimdMult               0                       # Class of executed instruction
system.switch_cpus.op_class::SimdMultAcc            0                       # Class of executed instruction
system.switch_cpus.op_class::SimdShift              0                       # Class of executed instruction
system.switch_cpus.op_class::SimdShiftAcc            0                       # Class of executed instruction
system.switch_cpus.op_class::SimdDiv                0                       # Class of executed instruction
system.switch_cpus.op_class::SimdSqrt               0                       # Class of executed instruction
system.switch_cpus.op_class::SimdFloatAdd            0                       # Class of executed instruction
system.switch_cpus.op_class::SimdFloatAlu            0                       # Class of executed instruction
system.switch_cpus.op_class::SimdFloatCmp            0                       # Class of executed instruction
system.switch_cpus.op_class::SimdFloatCvt            0                       # Class of executed instruction
system.switch_cpus.op_class::SimdFloatDiv            0                       # Class of executed instruction
system.switch_cpus.op_class::SimdFloatMisc            0                       # Class of executed instruction
system.switch_cpus.op_class::SimdFloatMult            0                       # Class of executed instruction
system.switch_cpus.op_class::SimdFloatMultAcc            0                       # Class of executed instruction
system.switch_cpus.op_class::SimdFloatSqrt            0                       # Class of executed instruction
system.switch_cpus.op_class::SimdReduceAdd            0                       # Class of executed instruction
system.switch_cpus.op_class::SimdReduceAlu            0                       # Class of executed instruction
system.switch_cpus.op_class::SimdReduceCmp            0                       # Class of executed instruction
system.switch_cpus.op_class::SimdFloatReduceAdd            0                       # Class of executed instruction
system.switch_cpus.op_class::SimdFloatReduceCmp            0                       # Class of executed instruction
system.switch_cpus.op_class::SimdAes                0                       # Class of executed instruction
system.switch_cpus.op_class::SimdAesMix             0                       # Class of executed instruction
system.switch_cpus.op_class::SimdSha1Hash            0                       # Class of executed instruction
system.switch_cpus.op_class::SimdSha1Hash2            0                       # Class of executed instruction
system.switch_cpus.op_class::SimdSha256Hash            0                       # Class of executed instruction
system.switch_cpus.op_class::SimdSha256Hash2            0                       # Class of executed instruction
system.switch_cpus.op_class::SimdShaSigma2            0                       # Class of executed instruction
system.switch_cpus.op_class::SimdShaSigma3            0                       # Class of executed instruction
system.switch_cpus.op_class::SimdPredAlu            0                       # Class of executed instruction
system.switch_cpus.op_class::MemRead                0                       # Class of executed instruction
system.switch_cpus.op_class::MemWrite               0                       # Class of executed instruction
system.switch_cpus.op_class::FloatMemRead            0                       # Class of executed instruction
system.switch_cpus.op_class::FloatMemWrite            0                       # Class of executed instruction
system.switch_cpus.op_class::IprAccess              0                       # Class of executed instruction
system.switch_cpus.op_class::InstPrefetch            0                       # Class of executed instruction
system.switch_cpus.op_class::total                  0                       # Class of executed instruction
system.switch_cpus_1.branchPred.BTBCorrect            0                       # Number of correct BTB predictions (this stat may not work properly.
system.switch_cpus_1.branchPred.BTBHitPct          nan                       # BTB Hit Percentage
system.switch_cpus_1.branchPred.BTBHits             0                       # Number of BTB hits
system.switch_cpus_1.branchPred.BTBLookups            0                       # Number of BTB lookups
system.switch_cpus_1.branchPred.RASInCorrect           45                       # Number of incorrect RAS predictions.
system.switch_cpus_1.branchPred.condIncorrect     10984946                       # Number of conditional branches incorrect
system.switch_cpus_1.branchPred.condPredicted    117268532                       # Number of conditional branches predicted
system.switch_cpus_1.branchPred.indirectHits     38271535                       # Number of indirect target hits.
system.switch_cpus_1.branchPred.indirectLookups     64251108                       # Number of indirect predictor lookups.
system.switch_cpus_1.branchPred.indirectMisses     25979573                       # Number of indirect misses.
system.switch_cpus_1.branchPred.lookups     124741658                       # Number of BP lookups
system.switch_cpus_1.branchPred.usedRAS       2639458                       # Number of times the RAS was used to get a target.
system.switch_cpus_1.branchPredindirectMispredicted      6151730                       # Number of mispredicted indirect branches.
system.switch_cpus_1.cc_regfile_reads       361137236                       # number of cc regfile reads
system.switch_cpus_1.cc_regfile_writes      313920564                       # number of cc regfile writes
system.switch_cpus_1.commit.amos                    0                       # Number of atomic instructions committed
system.switch_cpus_1.commit.branchMispredicts     10985408                       # The number of times a branch was mispredicted
system.switch_cpus_1.commit.branches         57167651                       # Number of branches committed
system.switch_cpus_1.commit.bw_lim_events     34276258                       # number cycles where commit BW limit reached
system.switch_cpus_1.commit.commitNonSpecStalls            6                       # The number of times commit has been forced to stall to communicate backwards
system.switch_cpus_1.commit.commitSquashedInsts    423815396                       # The number of squashed insts skipped by commit
system.switch_cpus_1.commit.committedInsts    349837583                       # Number of instructions committed
system.switch_cpus_1.commit.committedOps    591390416                       # Number of ops (including micro ops) committed
system.switch_cpus_1.commit.committed_per_cycle::samples    454748637                       # Number of insts commited each cycle
system.switch_cpus_1.commit.committed_per_cycle::mean     1.300478                       # Number of insts commited each cycle
system.switch_cpus_1.commit.committed_per_cycle::stdev     2.324310                       # Number of insts commited each cycle
system.switch_cpus_1.commit.committed_per_cycle::underflows            0      0.00%      0.00% # Number of insts commited each cycle
system.switch_cpus_1.commit.committed_per_cycle::0    276736745     60.85%     60.85% # Number of insts commited each cycle
system.switch_cpus_1.commit.committed_per_cycle::1     69479173     15.28%     76.13% # Number of insts commited each cycle
system.switch_cpus_1.commit.committed_per_cycle::2     22671096      4.99%     81.12% # Number of insts commited each cycle
system.switch_cpus_1.commit.committed_per_cycle::3     26476819      5.82%     86.94% # Number of insts commited each cycle
system.switch_cpus_1.commit.committed_per_cycle::4     13535311      2.98%     89.92% # Number of insts commited each cycle
system.switch_cpus_1.commit.committed_per_cycle::5      4486754      0.99%     90.90% # Number of insts commited each cycle
system.switch_cpus_1.commit.committed_per_cycle::6      3251851      0.72%     91.62% # Number of insts commited each cycle
system.switch_cpus_1.commit.committed_per_cycle::7      3834630      0.84%     92.46% # Number of insts commited each cycle
system.switch_cpus_1.commit.committed_per_cycle::8     34276258      7.54%    100.00% # Number of insts commited each cycle
system.switch_cpus_1.commit.committed_per_cycle::overflows            0      0.00%    100.00% # Number of insts commited each cycle
system.switch_cpus_1.commit.committed_per_cycle::min_value            0                       # Number of insts commited each cycle
system.switch_cpus_1.commit.committed_per_cycle::max_value            8                       # Number of insts commited each cycle
system.switch_cpus_1.commit.committed_per_cycle::total    454748637                       # Number of insts commited each cycle
system.switch_cpus_1.commit.fp_insts           157352                       # Number of committed floating point instructions.
system.switch_cpus_1.commit.function_calls      1587937                       # Number of function calls committed.
system.switch_cpus_1.commit.int_insts       590654157                       # Number of committed integer instructions.
system.switch_cpus_1.commit.loads           104027389                       # Number of loads committed
system.switch_cpus_1.commit.membars                 0                       # Number of memory barriers committed
system.switch_cpus_1.commit.op_class_0::No_OpClass       735700      0.12%      0.12% # Class of committed instruction
system.switch_cpus_1.commit.op_class_0::IntAlu    451836507     76.40%     76.53% # Class of committed instruction
system.switch_cpus_1.commit.op_class_0::IntMult          343      0.00%     76.53% # Class of committed instruction
system.switch_cpus_1.commit.op_class_0::IntDiv          153      0.00%     76.53% # Class of committed instruction
system.switch_cpus_1.commit.op_class_0::FloatAdd            8      0.00%     76.53% # Class of committed instruction
system.switch_cpus_1.commit.op_class_0::FloatCmp            0      0.00%     76.53% # Class of committed instruction
system.switch_cpus_1.commit.op_class_0::FloatCvt            0      0.00%     76.53% # Class of committed instruction
system.switch_cpus_1.commit.op_class_0::FloatMult            0      0.00%     76.53% # Class of committed instruction
system.switch_cpus_1.commit.op_class_0::FloatMultAcc            0      0.00%     76.53% # Class of committed instruction
system.switch_cpus_1.commit.op_class_0::FloatDiv            0      0.00%     76.53% # Class of committed instruction
system.switch_cpus_1.commit.op_class_0::FloatMisc            0      0.00%     76.53% # Class of committed instruction
system.switch_cpus_1.commit.op_class_0::FloatSqrt            0      0.00%     76.53% # Class of committed instruction
system.switch_cpus_1.commit.op_class_0::SimdAdd            0      0.00%     76.53% # Class of committed instruction
system.switch_cpus_1.commit.op_class_0::SimdAddAcc            0      0.00%     76.53% # Class of committed instruction
system.switch_cpus_1.commit.op_class_0::SimdAlu           32      0.00%     76.53% # Class of committed instruction
system.switch_cpus_1.commit.op_class_0::SimdCmp            0      0.00%     76.53% # Class of committed instruction
system.switch_cpus_1.commit.op_class_0::SimdCvt           56      0.00%     76.53% # Class of committed instruction
system.switch_cpus_1.commit.op_class_0::SimdMisc          112      0.00%     76.53% # Class of committed instruction
system.switch_cpus_1.commit.op_class_0::SimdMult            0      0.00%     76.53% # Class of committed instruction
system.switch_cpus_1.commit.op_class_0::SimdMultAcc            0      0.00%     76.53% # Class of committed instruction
system.switch_cpus_1.commit.op_class_0::SimdShift            0      0.00%     76.53% # Class of committed instruction
system.switch_cpus_1.commit.op_class_0::SimdShiftAcc            0      0.00%     76.53% # Class of committed instruction
system.switch_cpus_1.commit.op_class_0::SimdDiv            0      0.00%     76.53% # Class of committed instruction
system.switch_cpus_1.commit.op_class_0::SimdSqrt            0      0.00%     76.53% # Class of committed instruction
system.switch_cpus_1.commit.op_class_0::SimdFloatAdd            0      0.00%     76.53% # Class of committed instruction
system.switch_cpus_1.commit.op_class_0::SimdFloatAlu            0      0.00%     76.53% # Class of committed instruction
system.switch_cpus_1.commit.op_class_0::SimdFloatCmp            0      0.00%     76.53% # Class of committed instruction
system.switch_cpus_1.commit.op_class_0::SimdFloatCvt            0      0.00%     76.53% # Class of committed instruction
system.switch_cpus_1.commit.op_class_0::SimdFloatDiv            0      0.00%     76.53% # Class of committed instruction
system.switch_cpus_1.commit.op_class_0::SimdFloatMisc            0      0.00%     76.53% # Class of committed instruction
system.switch_cpus_1.commit.op_class_0::SimdFloatMult            0      0.00%     76.53% # Class of committed instruction
system.switch_cpus_1.commit.op_class_0::SimdFloatMultAcc            0      0.00%     76.53% # Class of committed instruction
system.switch_cpus_1.commit.op_class_0::SimdFloatSqrt            0      0.00%     76.53% # Class of committed instruction
system.switch_cpus_1.commit.op_class_0::SimdReduceAdd            0      0.00%     76.53% # Class of committed instruction
system.switch_cpus_1.commit.op_class_0::SimdReduceAlu            0      0.00%     76.53% # Class of committed instruction
system.switch_cpus_1.commit.op_class_0::SimdReduceCmp            0      0.00%     76.53% # Class of committed instruction
system.switch_cpus_1.commit.op_class_0::SimdFloatReduceAdd            0      0.00%     76.53% # Class of committed instruction
system.switch_cpus_1.commit.op_class_0::SimdFloatReduceCmp            0      0.00%     76.53% # Class of committed instruction
system.switch_cpus_1.commit.op_class_0::SimdAes            0      0.00%     76.53% # Class of committed instruction
system.switch_cpus_1.commit.op_class_0::SimdAesMix            0      0.00%     76.53% # Class of committed instruction
system.switch_cpus_1.commit.op_class_0::SimdSha1Hash            0      0.00%     76.53% # Class of committed instruction
system.switch_cpus_1.commit.op_class_0::SimdSha1Hash2            0      0.00%     76.53% # Class of committed instruction
system.switch_cpus_1.commit.op_class_0::SimdSha256Hash            0      0.00%     76.53% # Class of committed instruction
system.switch_cpus_1.commit.op_class_0::SimdSha256Hash2            0      0.00%     76.53% # Class of committed instruction
system.switch_cpus_1.commit.op_class_0::SimdShaSigma2            0      0.00%     76.53% # Class of committed instruction
system.switch_cpus_1.commit.op_class_0::SimdShaSigma3            0      0.00%     76.53% # Class of committed instruction
system.switch_cpus_1.commit.op_class_0::SimdPredAlu            0      0.00%     76.53% # Class of committed instruction
system.switch_cpus_1.commit.op_class_0::MemRead    104027355     17.59%     94.12% # Class of committed instruction
system.switch_cpus_1.commit.op_class_0::MemWrite     34633036      5.86%     99.97% # Class of committed instruction
system.switch_cpus_1.commit.op_class_0::FloatMemRead           34      0.00%     99.97% # Class of committed instruction
system.switch_cpus_1.commit.op_class_0::FloatMemWrite       157080      0.03%    100.00% # Class of committed instruction
system.switch_cpus_1.commit.op_class_0::IprAccess            0      0.00%    100.00% # Class of committed instruction
system.switch_cpus_1.commit.op_class_0::InstPrefetch            0      0.00%    100.00% # Class of committed instruction
system.switch_cpus_1.commit.op_class_0::total    591390416                       # Class of committed instruction
system.switch_cpus_1.commit.refs            138817505                       # Number of memory references committed
system.switch_cpus_1.commit.swp_count               0                       # Number of s/w prefetches committed
system.switch_cpus_1.commit.vec_insts               0                       # Number of committed Vector instructions.
system.switch_cpus_1.committedInsts         349837583                       # Number of Instructions Simulated
system.switch_cpus_1.committedOps           591390416                       # Number of Ops (including micro ops) Simulated
system.switch_cpus_1.cpi                     1.478850                       # CPI: Cycles Per Instruction
system.switch_cpus_1.cpi_total               1.478850                       # CPI: Total CPI of All Threads
system.switch_cpus_1.decode.BlockedCycles    273804140                       # Number of cycles decode is blocked
system.switch_cpus_1.decode.DecodedInsts   1178144550                       # Number of instructions handled by decode
system.switch_cpus_1.decode.IdleCycles       66928467                       # Number of cycles decode is idle
system.switch_cpus_1.decode.RunCycles       134903749                       # Number of cycles decode is running
system.switch_cpus_1.decode.SquashCycles     11015849                       # Number of cycles decode is squashing
system.switch_cpus_1.decode.UnblockCycles     30659815                       # Number of cycles decode is unblocking
system.switch_cpus_1.dtb.rdAccesses         147397865                       # TLB accesses on read requests
system.switch_cpus_1.dtb.rdMisses             1983545                       # TLB misses on read requests
system.switch_cpus_1.dtb.wrAccesses          44945058                       # TLB accesses on write requests
system.switch_cpus_1.dtb.wrMisses              518110                       # TLB misses on write requests
system.switch_cpus_1.fetch.Branches         124741658                       # Number of branches that fetch encountered
system.switch_cpus_1.fetch.CacheLines        83027569                       # Number of cache lines fetched
system.switch_cpus_1.fetch.Cycles           416203020                       # Number of cycles fetch has run and was not squashing or blocked
system.switch_cpus_1.fetch.IcacheSquashes      2539379                       # Number of outstanding Icache misses that were squashed
system.switch_cpus_1.fetch.IcacheWaitRetryStallCycles           40                       # Number of stall cycles due to full MSHR
system.switch_cpus_1.fetch.Insts            769560738                       # Number of instructions fetch has processed
system.switch_cpus_1.fetch.MiscStallCycles          478                       # Number of cycles fetch has spent waiting on interrupts, or bad addresses, or out of MSHRs
system.switch_cpus_1.fetch.PendingQuiesceStallCycles            6                       # Number of stall cycles due to pending quiesce instructions
system.switch_cpus_1.fetch.PendingTrapStallCycles         4799                       # Number of stall cycles due to pending traps
system.switch_cpus_1.fetch.SquashCycles      22031698                       # Number of cycles fetch has spent squashing
system.switch_cpus_1.fetch.TlbCycles                2                       # Number of cycles fetch has spent waiting for tlb
system.switch_cpus_1.fetch.branchRate        0.241113                       # Number of branch fetches per cycle
system.switch_cpus_1.fetch.icacheStallCycles     90087837                       # Number of cycles fetch is stalled on an Icache miss
system.switch_cpus_1.fetch.predictedBranches     40910993                       # Number of branches that fetch has predicted taken
system.switch_cpus_1.fetch.rate              1.487484                       # Number of inst fetches per cycle
system.switch_cpus_1.fetch.rateDist::samples    517312031                       # Number of instructions fetched each cycle (Total)
system.switch_cpus_1.fetch.rateDist::mean     2.474016                       # Number of instructions fetched each cycle (Total)
system.switch_cpus_1.fetch.rateDist::stdev     3.406685                       # Number of instructions fetched each cycle (Total)
system.switch_cpus_1.fetch.rateDist::underflows            0      0.00%      0.00% # Number of instructions fetched each cycle (Total)
system.switch_cpus_1.fetch.rateDist::0      312633350     60.43%     60.43% # Number of instructions fetched each cycle (Total)
system.switch_cpus_1.fetch.rateDist::1       11869460      2.29%     62.73% # Number of instructions fetched each cycle (Total)
system.switch_cpus_1.fetch.rateDist::2       15076226      2.91%     65.64% # Number of instructions fetched each cycle (Total)
system.switch_cpus_1.fetch.rateDist::3       11601877      2.24%     67.89% # Number of instructions fetched each cycle (Total)
system.switch_cpus_1.fetch.rateDist::4       10108415      1.95%     69.84% # Number of instructions fetched each cycle (Total)
system.switch_cpus_1.fetch.rateDist::5       18125943      3.50%     73.34% # Number of instructions fetched each cycle (Total)
system.switch_cpus_1.fetch.rateDist::6       10772167      2.08%     75.43% # Number of instructions fetched each cycle (Total)
system.switch_cpus_1.fetch.rateDist::7        9682663      1.87%     77.30% # Number of instructions fetched each cycle (Total)
system.switch_cpus_1.fetch.rateDist::8      117441930     22.70%    100.00% # Number of instructions fetched each cycle (Total)
system.switch_cpus_1.fetch.rateDist::overflows            0      0.00%    100.00% # Number of instructions fetched each cycle (Total)
system.switch_cpus_1.fetch.rateDist::min_value            0                       # Number of instructions fetched each cycle (Total)
system.switch_cpus_1.fetch.rateDist::max_value            8                       # Number of instructions fetched each cycle (Total)
system.switch_cpus_1.fetch.rateDist::total    517312031                       # Number of instructions fetched each cycle (Total)
system.switch_cpus_1.fp_regfile_reads          279471                       # number of floating regfile reads
system.switch_cpus_1.fp_regfile_writes          78545                       # number of floating regfile writes
system.switch_cpus_1.idleCycles                 45373                       # Total number of cycles that the CPU has spent unscheduled due to idling
system.switch_cpus_1.iew.branchMispredicts     13211892                       # Number of branch mispredicts detected at execute
system.switch_cpus_1.iew.exec_branches       73803096                       # Number of branches executed
system.switch_cpus_1.iew.exec_nop                   0                       # number of nop insts executed
system.switch_cpus_1.iew.exec_rate           1.633973                       # Inst execution rate
system.switch_cpus_1.iew.exec_refs          195648542                       # number of memory reference insts executed
system.switch_cpus_1.iew.exec_stores         44938723                       # Number of stores executed
system.switch_cpus_1.iew.exec_swp                   0                       # number of swp insts executed
system.switch_cpus_1.iew.iewBlockCycles     105328770                       # Number of cycles IEW is blocking
system.switch_cpus_1.iew.iewDispLoadInsts    181942300                       # Number of dispatched load instructions
system.switch_cpus_1.iew.iewDispNonSpecInsts           78                       # Number of dispatched non-speculative instructions
system.switch_cpus_1.iew.iewDispSquashedInsts       948619                       # Number of squashed instructions skipped by dispatch
system.switch_cpus_1.iew.iewDispStoreInsts     65193055                       # Number of dispatched store instructions
system.switch_cpus_1.iew.iewDispatchedInsts   1015107416                       # Number of instructions dispatched to IQ
system.switch_cpus_1.iew.iewExecLoadInsts    150709819                       # Number of load instructions executed
system.switch_cpus_1.iew.iewExecSquashedInsts     27080162                       # Number of squashed instructions skipped in execute
system.switch_cpus_1.iew.iewExecutedInsts    845348122                       # Number of executed instructions
system.switch_cpus_1.iew.iewIQFullEvents      1170923                       # Number of times the IQ has become full, causing a stall
system.switch_cpus_1.iew.iewIdleCycles              0                       # Number of cycles IEW is idle
system.switch_cpus_1.iew.iewLSQFullEvents     19064808                       # Number of times the LSQ has become full, causing a stall
system.switch_cpus_1.iew.iewSquashCycles     11015849                       # Number of cycles IEW is squashing
system.switch_cpus_1.iew.iewUnblockCycles     21203477                       # Number of cycles IEW is unblocking
system.switch_cpus_1.iew.lsq.thread0.blockedLoads            0                       # Number of blocked loads due to partial load-store forwarding
system.switch_cpus_1.iew.lsq.thread0.cacheBlocked      1025063                       # Number of times an access to memory failed due to the cache being blocked
system.switch_cpus_1.iew.lsq.thread0.forwLoads     13944882                       # Number of loads that had data forwarded from stores
system.switch_cpus_1.iew.lsq.thread0.ignoredResponses        71172                       # Number of memory responses ignored because the instruction is squashed
system.switch_cpus_1.iew.lsq.thread0.invAddrLoads            0                       # Number of loads ignored due to an invalid address
system.switch_cpus_1.iew.lsq.thread0.invAddrSwpfs            0                       # Number of software prefetches ignored due to an invalid address
system.switch_cpus_1.iew.lsq.thread0.memOrderViolation        38784                       # Number of memory ordering violations
system.switch_cpus_1.iew.lsq.thread0.rescheduledLoads        53555                       # Number of loads that were rescheduled
system.switch_cpus_1.iew.lsq.thread0.squashedLoads     77914911                       # Number of loads squashed
system.switch_cpus_1.iew.lsq.thread0.squashedStores     30402939                       # Number of stores squashed
system.switch_cpus_1.iew.memOrderViolationEvents        38784                       # Number of memory order violations
system.switch_cpus_1.iew.predictedNotTakenIncorrect     11898103                       # Number of branches that were predicted not taken incorrectly
system.switch_cpus_1.iew.predictedTakenIncorrect      1313789                       # Number of branches that were predicted taken incorrectly
system.switch_cpus_1.iew.wb_consumers       955186878                       # num instructions consuming a value
system.switch_cpus_1.iew.wb_count           825063282                       # cumulative count of insts written-back
system.switch_cpus_1.iew.wb_fanout           0.664349                       # average fanout of values written-back
system.switch_cpus_1.iew.wb_producers       634577837                       # num instructions producing a value
system.switch_cpus_1.iew.wb_rate             1.594765                       # insts written-back per cycle
system.switch_cpus_1.iew.wb_sent            830869645                       # cumulative count of insts sent to commit
system.switch_cpus_1.int_regfile_reads     1293111398                       # number of integer regfile reads
system.switch_cpus_1.int_regfile_writes     708639761                       # number of integer regfile writes
system.switch_cpus_1.ipc                     0.676201                       # IPC: Instructions Per Cycle
system.switch_cpus_1.ipc_total               0.676201                       # IPC: Total IPC of All Threads
system.switch_cpus_1.iq.FU_type_0::No_OpClass      3054317      0.35%      0.35% # Type of FU issued
system.switch_cpus_1.iq.FU_type_0::IntAlu    663671625     76.07%     76.42% # Type of FU issued
system.switch_cpus_1.iq.FU_type_0::IntMult          376      0.00%     76.42% # Type of FU issued
system.switch_cpus_1.iq.FU_type_0::IntDiv          157      0.00%     76.42% # Type of FU issued
system.switch_cpus_1.iq.FU_type_0::FloatAdd           11      0.00%     76.42% # Type of FU issued
system.switch_cpus_1.iq.FU_type_0::FloatCmp            0      0.00%     76.42% # Type of FU issued
system.switch_cpus_1.iq.FU_type_0::FloatCvt         6385      0.00%     76.42% # Type of FU issued
system.switch_cpus_1.iq.FU_type_0::FloatMult            0      0.00%     76.42% # Type of FU issued
system.switch_cpus_1.iq.FU_type_0::FloatMultAcc            0      0.00%     76.42% # Type of FU issued
system.switch_cpus_1.iq.FU_type_0::FloatDiv            0      0.00%     76.42% # Type of FU issued
system.switch_cpus_1.iq.FU_type_0::FloatMisc            0      0.00%     76.42% # Type of FU issued
system.switch_cpus_1.iq.FU_type_0::FloatSqrt            0      0.00%     76.42% # Type of FU issued
system.switch_cpus_1.iq.FU_type_0::SimdAdd            0      0.00%     76.42% # Type of FU issued
system.switch_cpus_1.iq.FU_type_0::SimdAddAcc            0      0.00%     76.42% # Type of FU issued
system.switch_cpus_1.iq.FU_type_0::SimdAlu           38      0.00%     76.42% # Type of FU issued
system.switch_cpus_1.iq.FU_type_0::SimdCmp            0      0.00%     76.42% # Type of FU issued
system.switch_cpus_1.iq.FU_type_0::SimdCvt           66      0.00%     76.42% # Type of FU issued
system.switch_cpus_1.iq.FU_type_0::SimdMisc       104720      0.01%     76.43% # Type of FU issued
system.switch_cpus_1.iq.FU_type_0::SimdMult            0      0.00%     76.43% # Type of FU issued
system.switch_cpus_1.iq.FU_type_0::SimdMultAcc            0      0.00%     76.43% # Type of FU issued
system.switch_cpus_1.iq.FU_type_0::SimdShift            0      0.00%     76.43% # Type of FU issued
system.switch_cpus_1.iq.FU_type_0::SimdShiftAcc            0      0.00%     76.43% # Type of FU issued
system.switch_cpus_1.iq.FU_type_0::SimdDiv            0      0.00%     76.43% # Type of FU issued
system.switch_cpus_1.iq.FU_type_0::SimdSqrt            0      0.00%     76.43% # Type of FU issued
system.switch_cpus_1.iq.FU_type_0::SimdFloatAdd            0      0.00%     76.43% # Type of FU issued
system.switch_cpus_1.iq.FU_type_0::SimdFloatAlu            0      0.00%     76.43% # Type of FU issued
system.switch_cpus_1.iq.FU_type_0::SimdFloatCmp            0      0.00%     76.43% # Type of FU issued
system.switch_cpus_1.iq.FU_type_0::SimdFloatCvt        39927      0.00%     76.44% # Type of FU issued
system.switch_cpus_1.iq.FU_type_0::SimdFloatDiv            0      0.00%     76.44% # Type of FU issued
system.switch_cpus_1.iq.FU_type_0::SimdFloatMisc            0      0.00%     76.44% # Type of FU issued
system.switch_cpus_1.iq.FU_type_0::SimdFloatMult            0      0.00%     76.44% # Type of FU issued
system.switch_cpus_1.iq.FU_type_0::SimdFloatMultAcc            0      0.00%     76.44% # Type of FU issued
system.switch_cpus_1.iq.FU_type_0::SimdFloatSqrt            0      0.00%     76.44% # Type of FU issued
system.switch_cpus_1.iq.FU_type_0::SimdReduceAdd            0      0.00%     76.44% # Type of FU issued
system.switch_cpus_1.iq.FU_type_0::SimdReduceAlu            0      0.00%     76.44% # Type of FU issued
system.switch_cpus_1.iq.FU_type_0::SimdReduceCmp            0      0.00%     76.44% # Type of FU issued
system.switch_cpus_1.iq.FU_type_0::SimdFloatReduceAdd            0      0.00%     76.44% # Type of FU issued
system.switch_cpus_1.iq.FU_type_0::SimdFloatReduceCmp            0      0.00%     76.44% # Type of FU issued
system.switch_cpus_1.iq.FU_type_0::SimdAes            0      0.00%     76.44% # Type of FU issued
system.switch_cpus_1.iq.FU_type_0::SimdAesMix            0      0.00%     76.44% # Type of FU issued
system.switch_cpus_1.iq.FU_type_0::SimdSha1Hash            0      0.00%     76.44% # Type of FU issued
system.switch_cpus_1.iq.FU_type_0::SimdSha1Hash2            0      0.00%     76.44% # Type of FU issued
system.switch_cpus_1.iq.FU_type_0::SimdSha256Hash            0      0.00%     76.44% # Type of FU issued
system.switch_cpus_1.iq.FU_type_0::SimdSha256Hash2            0      0.00%     76.44% # Type of FU issued
system.switch_cpus_1.iq.FU_type_0::SimdShaSigma2            0      0.00%     76.44% # Type of FU issued
system.switch_cpus_1.iq.FU_type_0::SimdShaSigma3            0      0.00%     76.44% # Type of FU issued
system.switch_cpus_1.iq.FU_type_0::SimdPredAlu            0      0.00%     76.44% # Type of FU issued
system.switch_cpus_1.iq.FU_type_0::MemRead    158171036     18.13%     94.57% # Type of FU issued
system.switch_cpus_1.iq.FU_type_0::MemWrite     47222240      5.41%     99.98% # Type of FU issued
system.switch_cpus_1.iq.FU_type_0::FloatMemRead           54      0.00%     99.98% # Type of FU issued
system.switch_cpus_1.iq.FU_type_0::FloatMemWrite       157332      0.02%    100.00% # Type of FU issued
system.switch_cpus_1.iq.FU_type_0::IprAccess            0      0.00%    100.00% # Type of FU issued
system.switch_cpus_1.iq.FU_type_0::InstPrefetch            0      0.00%    100.00% # Type of FU issued
system.switch_cpus_1.iq.FU_type_0::total    872428284                       # Type of FU issued
system.switch_cpus_1.iq.fp_alu_accesses        308648                       # Number of floating point alu accesses
system.switch_cpus_1.iq.fp_inst_queue_reads       620963                       # Number of floating instruction queue reads
system.switch_cpus_1.iq.fp_inst_queue_wakeup_accesses       241868                       # Number of floating instruction queue wakeup accesses
system.switch_cpus_1.iq.fp_inst_queue_writes       960540                       # Number of floating instruction queue writes
system.switch_cpus_1.iq.fu_busy_cnt           9521326                       # FU busy when requested
system.switch_cpus_1.iq.fu_busy_rate         0.010914                       # FU busy rate (busy events/executed inst)
system.switch_cpus_1.iq.fu_full::No_OpClass            0      0.00%      0.00% # attempts to use FU when none available
system.switch_cpus_1.iq.fu_full::IntAlu       7479378     78.55%     78.55% # attempts to use FU when none available
system.switch_cpus_1.iq.fu_full::IntMult            0      0.00%     78.55% # attempts to use FU when none available
system.switch_cpus_1.iq.fu_full::IntDiv             0      0.00%     78.55% # attempts to use FU when none available
system.switch_cpus_1.iq.fu_full::FloatAdd            0      0.00%     78.55% # attempts to use FU when none available
system.switch_cpus_1.iq.fu_full::FloatCmp            0      0.00%     78.55% # attempts to use FU when none available
system.switch_cpus_1.iq.fu_full::FloatCvt            6      0.00%     78.55% # attempts to use FU when none available
system.switch_cpus_1.iq.fu_full::FloatMult            0      0.00%     78.55% # attempts to use FU when none available
system.switch_cpus_1.iq.fu_full::FloatMultAcc            0      0.00%     78.55% # attempts to use FU when none available
system.switch_cpus_1.iq.fu_full::FloatDiv            0      0.00%     78.55% # attempts to use FU when none available
system.switch_cpus_1.iq.fu_full::FloatMisc            0      0.00%     78.55% # attempts to use FU when none available
system.switch_cpus_1.iq.fu_full::FloatSqrt            0      0.00%     78.55% # attempts to use FU when none available
system.switch_cpus_1.iq.fu_full::SimdAdd            0      0.00%     78.55% # attempts to use FU when none available
system.switch_cpus_1.iq.fu_full::SimdAddAcc            0      0.00%     78.55% # attempts to use FU when none available
system.switch_cpus_1.iq.fu_full::SimdAlu            1      0.00%     78.55% # attempts to use FU when none available
system.switch_cpus_1.iq.fu_full::SimdCmp            0      0.00%     78.55% # attempts to use FU when none available
system.switch_cpus_1.iq.fu_full::SimdCvt            3      0.00%     78.55% # attempts to use FU when none available
system.switch_cpus_1.iq.fu_full::SimdMisc            0      0.00%     78.55% # attempts to use FU when none available
system.switch_cpus_1.iq.fu_full::SimdMult            0      0.00%     78.55% # attempts to use FU when none available
system.switch_cpus_1.iq.fu_full::SimdMultAcc            0      0.00%     78.55% # attempts to use FU when none available
system.switch_cpus_1.iq.fu_full::SimdShift            0      0.00%     78.55% # attempts to use FU when none available
system.switch_cpus_1.iq.fu_full::SimdShiftAcc            0      0.00%     78.55% # attempts to use FU when none available
system.switch_cpus_1.iq.fu_full::SimdDiv            0      0.00%     78.55% # attempts to use FU when none available
system.switch_cpus_1.iq.fu_full::SimdSqrt            0      0.00%     78.55% # attempts to use FU when none available
system.switch_cpus_1.iq.fu_full::SimdFloatAdd            0      0.00%     78.55% # attempts to use FU when none available
system.switch_cpus_1.iq.fu_full::SimdFloatAlu            0      0.00%     78.55% # attempts to use FU when none available
system.switch_cpus_1.iq.fu_full::SimdFloatCmp            0      0.00%     78.55% # attempts to use FU when none available
system.switch_cpus_1.iq.fu_full::SimdFloatCvt            0      0.00%     78.55% # attempts to use FU when none available
system.switch_cpus_1.iq.fu_full::SimdFloatDiv            0      0.00%     78.55% # attempts to use FU when none available
system.switch_cpus_1.iq.fu_full::SimdFloatMisc            0      0.00%     78.55% # attempts to use FU when none available
system.switch_cpus_1.iq.fu_full::SimdFloatMult            0      0.00%     78.55% # attempts to use FU when none available
system.switch_cpus_1.iq.fu_full::SimdFloatMultAcc            0      0.00%     78.55% # attempts to use FU when none available
system.switch_cpus_1.iq.fu_full::SimdFloatSqrt            0      0.00%     78.55% # attempts to use FU when none available
system.switch_cpus_1.iq.fu_full::SimdReduceAdd            0      0.00%     78.55% # attempts to use FU when none available
system.switch_cpus_1.iq.fu_full::SimdReduceAlu            0      0.00%     78.55% # attempts to use FU when none available
system.switch_cpus_1.iq.fu_full::SimdReduceCmp            0      0.00%     78.55% # attempts to use FU when none available
system.switch_cpus_1.iq.fu_full::SimdFloatReduceAdd            0      0.00%     78.55% # attempts to use FU when none available
system.switch_cpus_1.iq.fu_full::SimdFloatReduceCmp            0      0.00%     78.55% # attempts to use FU when none available
system.switch_cpus_1.iq.fu_full::SimdAes            0      0.00%     78.55% # attempts to use FU when none available
system.switch_cpus_1.iq.fu_full::SimdAesMix            0      0.00%     78.55% # attempts to use FU when none available
system.switch_cpus_1.iq.fu_full::SimdSha1Hash            0      0.00%     78.55% # attempts to use FU when none available
system.switch_cpus_1.iq.fu_full::SimdSha1Hash2            0      0.00%     78.55% # attempts to use FU when none available
system.switch_cpus_1.iq.fu_full::SimdSha256Hash            0      0.00%     78.55% # attempts to use FU when none available
system.switch_cpus_1.iq.fu_full::SimdSha256Hash2            0      0.00%     78.55% # attempts to use FU when none available
system.switch_cpus_1.iq.fu_full::SimdShaSigma2            0      0.00%     78.55% # attempts to use FU when none available
system.switch_cpus_1.iq.fu_full::SimdShaSigma3            0      0.00%     78.55% # attempts to use FU when none available
system.switch_cpus_1.iq.fu_full::SimdPredAlu            0      0.00%     78.55% # attempts to use FU when none available
system.switch_cpus_1.iq.fu_full::MemRead      1966237     20.65%     99.20% # attempts to use FU when none available
system.switch_cpus_1.iq.fu_full::MemWrite        75632      0.79%    100.00% # attempts to use FU when none available
system.switch_cpus_1.iq.fu_full::FloatMemRead            1      0.00%    100.00% # attempts to use FU when none available
system.switch_cpus_1.iq.fu_full::FloatMemWrite           68      0.00%    100.00% # attempts to use FU when none available
system.switch_cpus_1.iq.fu_full::IprAccess            0      0.00%    100.00% # attempts to use FU when none available
system.switch_cpus_1.iq.fu_full::InstPrefetch            0      0.00%    100.00% # attempts to use FU when none available
system.switch_cpus_1.iq.int_alu_accesses    878586645                       # Number of integer alu accesses
system.switch_cpus_1.iq.int_inst_queue_reads   2273391258                       # Number of integer instruction queue reads
system.switch_cpus_1.iq.int_inst_queue_wakeup_accesses    824821414                       # Number of integer instruction queue wakeup accesses
system.switch_cpus_1.iq.int_inst_queue_writes   1437900206                       # Number of integer instruction queue writes
system.switch_cpus_1.iq.iqInstsAdded       1015107205                       # Number of instructions added to the IQ (excludes non-spec)
system.switch_cpus_1.iq.iqInstsIssued       872428284                       # Number of instructions issued
system.switch_cpus_1.iq.iqNonSpecInstsAdded          211                       # Number of non-speculative instructions added to the IQ
system.switch_cpus_1.iq.iqSquashedInstsExamined    423716999                       # Number of squashed instructions iterated over during squash; mainly for profiling
system.switch_cpus_1.iq.iqSquashedInstsIssued      2322296                       # Number of squashed instructions issued
system.switch_cpus_1.iq.iqSquashedNonSpecRemoved          205                       # Number of squashed non-spec instructions that were removed
system.switch_cpus_1.iq.iqSquashedOperandsExamined    615647991                       # Number of squashed operands that are examined and possibly removed from graph
system.switch_cpus_1.iq.issued_per_cycle::samples    517312031                       # Number of insts issued each cycle
system.switch_cpus_1.iq.issued_per_cycle::mean     1.686464                       # Number of insts issued each cycle
system.switch_cpus_1.iq.issued_per_cycle::stdev     2.193001                       # Number of insts issued each cycle
system.switch_cpus_1.iq.issued_per_cycle::underflows            0      0.00%      0.00% # Number of insts issued each cycle
system.switch_cpus_1.iq.issued_per_cycle::0    256768509     49.64%     49.64% # Number of insts issued each cycle
system.switch_cpus_1.iq.issued_per_cycle::1     59703919     11.54%     61.18% # Number of insts issued each cycle
system.switch_cpus_1.iq.issued_per_cycle::2     51278539      9.91%     71.09% # Number of insts issued each cycle
system.switch_cpus_1.iq.issued_per_cycle::3     37762495      7.30%     78.39% # Number of insts issued each cycle
system.switch_cpus_1.iq.issued_per_cycle::4     36131556      6.98%     85.37% # Number of insts issued each cycle
system.switch_cpus_1.iq.issued_per_cycle::5     29800517      5.76%     91.13% # Number of insts issued each cycle
system.switch_cpus_1.iq.issued_per_cycle::6     24832201      4.80%     95.93% # Number of insts issued each cycle
system.switch_cpus_1.iq.issued_per_cycle::7     13916573      2.69%     98.62% # Number of insts issued each cycle
system.switch_cpus_1.iq.issued_per_cycle::8      7117722      1.38%    100.00% # Number of insts issued each cycle
system.switch_cpus_1.iq.issued_per_cycle::overflows            0      0.00%    100.00% # Number of insts issued each cycle
system.switch_cpus_1.iq.issued_per_cycle::min_value            0                       # Number of insts issued each cycle
system.switch_cpus_1.iq.issued_per_cycle::max_value            8                       # Number of insts issued each cycle
system.switch_cpus_1.iq.issued_per_cycle::total    517312031                       # Number of insts issued each cycle
system.switch_cpus_1.iq.rate                 1.686316                       # Inst issue rate
system.switch_cpus_1.iq.vec_alu_accesses            0                       # Number of vector alu accesses
system.switch_cpus_1.iq.vec_inst_queue_reads            0                       # Number of vector instruction queue reads
system.switch_cpus_1.iq.vec_inst_queue_wakeup_accesses            0                       # Number of vector instruction queue wakeup accesses
system.switch_cpus_1.iq.vec_inst_queue_writes            0                       # Number of vector instruction queue writes
system.switch_cpus_1.itb.rdAccesses                 0                       # TLB accesses on read requests
system.switch_cpus_1.itb.rdMisses                   0                       # TLB misses on read requests
system.switch_cpus_1.itb.wrAccesses          83028223                       # TLB accesses on write requests
system.switch_cpus_1.itb.wrMisses                 718                       # TLB misses on write requests
system.switch_cpus_1.memDep0.conflictingLoads     30810064                       # Number of conflicting loads.
system.switch_cpus_1.memDep0.conflictingStores     17946248                       # Number of conflicting stores.
system.switch_cpus_1.memDep0.insertedLoads    181942300                       # Number of loads inserted to the mem dependence unit.
system.switch_cpus_1.memDep0.insertedStores     65193055                       # Number of stores inserted to the mem dependence unit.
system.switch_cpus_1.misc_regfile_reads     361469444                       # number of misc regfile reads
system.switch_cpus_1.numCycles              517357404                       # number of cpu cycles simulated
system.switch_cpus_1.numWorkItemsCompleted            0                       # number of work items this cpu completed
system.switch_cpus_1.numWorkItemsStarted            0                       # number of work items this cpu started
system.switch_cpus_1.rename.BlockCycles     171762791                       # Number of cycles rename is blocking
system.switch_cpus_1.rename.CommittedMaps    743940138                       # Number of HB maps that are committed
system.switch_cpus_1.rename.IQFullEvents     45449087                       # Number of times rename has blocked due to IQ full
system.switch_cpus_1.rename.IdleCycles       83070393                       # Number of cycles rename is idle
system.switch_cpus_1.rename.LQFullEvents     13747202                       # Number of times rename has blocked due to LQ full
system.switch_cpus_1.rename.ROBFullEvents      4168289                       # Number of times rename has blocked due to ROB full
system.switch_cpus_1.rename.RenameLookups   2849998952                       # Number of register rename lookups that rename has made
system.switch_cpus_1.rename.RenamedInsts   1120990385                       # Number of instructions processed by rename
system.switch_cpus_1.rename.RenamedOperands   1362168845                       # Number of destination operands rename has renamed
system.switch_cpus_1.rename.RunCycles       146827226                       # Number of cycles rename is running
system.switch_cpus_1.rename.SQFullEvents     37264946                       # Number of times rename has blocked due to SQ full
system.switch_cpus_1.rename.SquashCycles     11015849                       # Number of cycles rename is squashing
system.switch_cpus_1.rename.UnblockCycles    104635374                       # Number of cycles rename is unblocking
system.switch_cpus_1.rename.UndoneMaps      618228707                       # Number of HB maps that are undone due to squashing
system.switch_cpus_1.rename.fp_rename_lookups      2393814                       # Number of floating rename lookups
system.switch_cpus_1.rename.int_rename_lookups   1819910252                       # Number of integer rename lookups
system.switch_cpus_1.rename.serializeStallCycles          388                       # count of cycles rename stalled for serializing inst
system.switch_cpus_1.rename.serializingInsts            8                       # count of serializing insts renamed
system.switch_cpus_1.rename.skidInsts       142105406                       # count of insts added to the skid buffer
system.switch_cpus_1.rename.tempSerializingInsts            8                       # count of temporary serializing insts renamed
system.switch_cpus_1.rob.rob_reads         1435675617                       # The number of ROB reads
system.switch_cpus_1.rob.rob_writes        2093813700                       # The number of ROB writes
system.switch_cpus_1.timesIdled                   380                       # Number of times that the entire CPU went into an idle state and unscheduled itself
system.tol2bus.snoop_filter.hit_multi_requests            0                       # Number of requests hitting in the snoop filter with multiple (>1) holders of the requested data.
system.tol2bus.snoop_filter.hit_multi_snoops            0                       # Number of snoops hitting in the snoop filter with multiple (>1) holders of the requested data.
system.tol2bus.snoop_filter.hit_single_requests      5770310                       # Number of requests hitting in the snoop filter with a single holder of the requested data.
system.tol2bus.snoop_filter.hit_single_snoops         1161                       # Number of snoops hitting in the snoop filter with a single holder of the requested data.
system.tol2bus.snoop_filter.tot_requests     11341325                       # Total number of requests made to the snoop filter.
system.tol2bus.snoop_filter.tot_snoops           1161                       # Total number of snoops made to the snoop filter.
system.tol3bus.snoop_filter.hit_multi_requests            0                       # Number of requests hitting in the snoop filter with multiple (>1) holders of the requested data.
system.tol3bus.snoop_filter.hit_multi_snoops            0                       # Number of snoops hitting in the snoop filter with multiple (>1) holders of the requested data.
system.tol3bus.snoop_filter.hit_single_requests      5004027                       # Number of requests hitting in the snoop filter with a single holder of the requested data.
system.tol3bus.snoop_filter.hit_single_snoops         9730                       # Number of snoops hitting in the snoop filter with a single holder of the requested data.
system.tol3bus.snoop_filter.tot_requests      9921662                       # Total number of requests made to the snoop filter.
system.tol3bus.snoop_filter.tot_snoops           9730                       # Total number of snoops made to the snoop filter.
system.membus.trans_dist::ReadResp             108474                       # Transaction distribution
system.membus.trans_dist::WritebackDirty       164732                       # Transaction distribution
system.membus.trans_dist::CleanEvict            69260                       # Transaction distribution
system.membus.trans_dist::ReadExReq            125545                       # Transaction distribution
system.membus.trans_dist::ReadExResp           125545                       # Transaction distribution
system.membus.trans_dist::ReadSharedReq        108474                       # Transaction distribution
system.membus.pkt_count_system.l3.mem_side::system.mem_ctrls.port       702030                       # Packet count per connected master and slave (bytes)
system.membus.pkt_count_system.l3.mem_side::total       702030                       # Packet count per connected master and slave (bytes)
system.membus.pkt_count::total                 702030                       # Packet count per connected master and slave (bytes)
system.membus.pkt_size_system.l3.mem_side::system.mem_ctrls.port     25520064                       # Cumulative packet size per connected master and slave (bytes)
system.membus.pkt_size_system.l3.mem_side::total     25520064                       # Cumulative packet size per connected master and slave (bytes)
system.membus.pkt_size::total                25520064                       # Cumulative packet size per connected master and slave (bytes)
system.membus.snoops                                0                       # Total snoops (count)
system.membus.snoopTraffic                          0                       # Total snoop traffic (bytes)
system.membus.snoop_fanout::samples            234019                       # Request fanout histogram
system.membus.snoop_fanout::mean                    0                       # Request fanout histogram
system.membus.snoop_fanout::stdev                   0                       # Request fanout histogram
system.membus.snoop_fanout::underflows              0      0.00%      0.00% # Request fanout histogram
system.membus.snoop_fanout::0                  234019    100.00%    100.00% # Request fanout histogram
system.membus.snoop_fanout::1                       0      0.00%    100.00% # Request fanout histogram
system.membus.snoop_fanout::overflows               0      0.00%    100.00% # Request fanout histogram
system.membus.snoop_fanout::min_value               0                       # Request fanout histogram
system.membus.snoop_fanout::max_value               0                       # Request fanout histogram
system.membus.snoop_fanout::total              234019                       # Request fanout histogram
system.membus.reqLayer2.occupancy          1184223000                       # Layer occupancy (ticks)
system.membus.reqLayer2.utilization               0.5                       # Layer utilization (%)
system.membus.respLayer1.occupancy         1239133000                       # Layer occupancy (ticks)
system.membus.respLayer1.utilization              0.5                       # Layer utilization (%)
system.membus.power_state.pwrStateResidencyTicks::UNDEFINED 1392349022000                       # Cumulative time (in ticks) in various power states
system.switch_cpus_1.dtb.walker.power_state.pwrStateResidencyTicks::UNDEFINED 1392349022000                       # Cumulative time (in ticks) in various power states
system.switch_cpus_1.itb.walker.power_state.pwrStateResidencyTicks::UNDEFINED 1392349022000                       # Cumulative time (in ticks) in various power states
system.switch_cpus_1.power_state.pwrStateResidencyTicks::OFF 1392349022000                       # Cumulative time (in ticks) in various power states
system.switch_cpus.dtb.walker.power_state.pwrStateResidencyTicks::UNDEFINED 1392349022000                       # Cumulative time (in ticks) in various power states
system.switch_cpus.itb.walker.power_state.pwrStateResidencyTicks::UNDEFINED 1392349022000                       # Cumulative time (in ticks) in various power states
system.switch_cpus.power_state.numTransitions            1                       # Number of power state transitions
system.switch_cpus.power_state.pwrStateResidencyTicks::OFF 1392349022000                       # Cumulative time (in ticks) in various power states
system.tol2bus.trans_dist::ReadResp           4635029                       # Transaction distribution
system.tol2bus.trans_dist::WritebackDirty      1916920                       # Transaction distribution
system.tol2bus.trans_dist::WritebackClean          639                       # Transaction distribution
system.tol2bus.trans_dist::CleanEvict         4445664                       # Transaction distribution
system.tol2bus.trans_dist::UpgradeReq          199290                       # Transaction distribution
system.tol2bus.trans_dist::UpgradeResp         199290                       # Transaction distribution
system.tol2bus.trans_dist::ReadExReq           935988                       # Transaction distribution
system.tol2bus.trans_dist::ReadExResp          935988                       # Transaction distribution
system.tol2bus.trans_dist::ReadCleanReq       4635030                       # Transaction distribution
system.tol2bus.pkt_count_system.cpu.icache.mem_side::system.l2.cpu_side         1918                       # Packet count per connected master and slave (bytes)
system.tol2bus.pkt_count_system.cpu.dcache.mem_side::system.l2.cpu_side     17109714                       # Packet count per connected master and slave (bytes)
system.tol2bus.pkt_count::total              17111632                       # Packet count per connected master and slave (bytes)
system.tol2bus.pkt_size_system.cpu.icache.mem_side::system.l2.cpu_side        81792                       # Cumulative packet size per connected master and slave (bytes)
system.tol2bus.pkt_size_system.cpu.dcache.mem_side::system.l2.cpu_side    429134912                       # Cumulative packet size per connected master and slave (bytes)
system.tol2bus.pkt_size::total              429216704                       # Cumulative packet size per connected master and slave (bytes)
system.tol2bus.snoops                          792206                       # Total snoops (count)
system.tol2bus.snoopTraffic                  50052160                       # Total snoop traffic (bytes)
system.tol2bus.snoop_fanout::samples          6562514                       # Request fanout histogram
system.tol2bus.snoop_fanout::mean            0.000177                       # Request fanout histogram
system.tol2bus.snoop_fanout::stdev           0.013317                       # Request fanout histogram
system.tol2bus.snoop_fanout::underflows             0      0.00%      0.00% # Request fanout histogram
system.tol2bus.snoop_fanout::0                6561350     99.98%     99.98% # Request fanout histogram
system.tol2bus.snoop_fanout::1                   1164      0.02%    100.00% # Request fanout histogram
system.tol2bus.snoop_fanout::2                      0      0.00%    100.00% # Request fanout histogram
system.tol2bus.snoop_fanout::3                      0      0.00%    100.00% # Request fanout histogram
system.tol2bus.snoop_fanout::4                      0      0.00%    100.00% # Request fanout histogram
system.tol2bus.snoop_fanout::overflows              0      0.00%    100.00% # Request fanout histogram
system.tol2bus.snoop_fanout::min_value              0                       # Request fanout histogram
system.tol2bus.snoop_fanout::max_value              1                       # Request fanout histogram
system.tol2bus.snoop_fanout::total            6562514                       # Request fanout histogram
system.tol2bus.reqLayer0.occupancy         6806156500                       # Layer occupancy (ticks)
system.tol2bus.reqLayer0.utilization              2.6                       # Layer utilization (%)
system.tol2bus.respLayer1.occupancy        8455212000                       # Layer occupancy (ticks)
system.tol2bus.respLayer1.utilization             3.3                       # Layer utilization (%)
system.tol2bus.respLayer0.occupancy            958999                       # Layer occupancy (ticks)
system.tol2bus.respLayer0.utilization             0.0                       # Layer utilization (%)
system.tol2bus.power_state.pwrStateResidencyTicks::UNDEFINED 1392349022000                       # Cumulative time (in ticks) in various power states
system.voltage_domain.voltage                       1                       # Voltage in Volts
system.clk_domain.clock                          1000                       # Clock period in ticks
system.l2.demand_hits::.switch_cpus_1.inst           55                       # number of demand (read+write) hits
system.l2.demand_hits::.switch_cpus_1.data       653324                       # number of demand (read+write) hits
system.l2.demand_hits::total                   653379                       # number of demand (read+write) hits
system.l2.overall_hits::.switch_cpus_1.inst           55                       # number of overall hits
system.l2.overall_hits::.switch_cpus_1.data       653324                       # number of overall hits
system.l2.overall_hits::total                  653379                       # number of overall hits
system.l2.demand_misses::.switch_cpus_1.inst          585                       # number of demand (read+write) misses
system.l2.demand_misses::.switch_cpus_1.data      4917054                       # number of demand (read+write) misses
system.l2.demand_misses::total                4917639                       # number of demand (read+write) misses
system.l2.overall_misses::.switch_cpus_1.inst          585                       # number of overall misses
system.l2.overall_misses::.switch_cpus_1.data      4917054                       # number of overall misses
system.l2.overall_misses::total               4917639                       # number of overall misses
system.l2.demand_miss_latency::.switch_cpus_1.inst     57604500                       # number of demand (read+write) miss cycles
system.l2.demand_miss_latency::.switch_cpus_1.data 156475603000                       # number of demand (read+write) miss cycles
system.l2.demand_miss_latency::total     156533207500                       # number of demand (read+write) miss cycles
system.l2.overall_miss_latency::.switch_cpus_1.inst     57604500                       # number of overall miss cycles
system.l2.overall_miss_latency::.switch_cpus_1.data 156475603000                       # number of overall miss cycles
system.l2.overall_miss_latency::total    156533207500                       # number of overall miss cycles
system.l2.demand_accesses::.switch_cpus_1.inst          640                       # number of demand (read+write) accesses
system.l2.demand_accesses::.switch_cpus_1.data      5570378                       # number of demand (read+write) accesses
system.l2.demand_accesses::total              5571018                       # number of demand (read+write) accesses
system.l2.overall_accesses::.switch_cpus_1.inst          640                       # number of overall (read+write) accesses
system.l2.overall_accesses::.switch_cpus_1.data      5570378                       # number of overall (read+write) accesses
system.l2.overall_accesses::total             5571018                       # number of overall (read+write) accesses
system.l2.demand_miss_rate::.switch_cpus_1.inst     0.914062                       # miss rate for demand accesses
[...]
system.cpu.dcache.overall_misses::total      24092991                       # number of overall misses
system.cpu.dcache.demand_miss_latency::.switch_cpus.data  19148135000                       # number of demand (read+write) miss cycles
system.cpu.dcache.demand_miss_latency::.switch_cpus_1.data 278451264202                       # number of demand (read+write) miss cycles
system.cpu.dcache.demand_miss_latency::total 297599399202                       # number of demand (read+write) miss cycles
system.cpu.dcache.overall_miss_latency::.switch_cpus.data  19148135000                       # number of overall miss cycles
system.cpu.dcache.overall_miss_latency::.switch_cpus_1.data 278451264202                       # number of overall miss cycles
system.cpu.dcache.overall_miss_latency::total 297599399202                       # number of overall miss cycles
system.cpu.dcache.demand_accesses::.cpu.data    433795334                       # number of demand (read+write) accesses
system.cpu.dcache.demand_accesses::.switch_cpus.data     21480199                       # number of demand (read+write) accesses
system.cpu.dcache.demand_accesses::.switch_cpus_1.data    168137683                       # number of demand (read+write) accesses
system.cpu.dcache.demand_accesses::total    623413216                       # number of demand (read+write) accesses
system.cpu.dcache.overall_accesses::.cpu.data    433795334                       # number of overall (read+write) accesses
system.cpu.dcache.overall_accesses::.switch_cpus.data     21480199                       # number of overall (read+write) accesses
system.cpu.dcache.overall_accesses::.switch_cpus_1.data    168137683                       # number of overall (read+write) accesses
system.cpu.dcache.overall_accesses::total    623413216                       # number of overall (read+write) accesses
system.cpu.dcache.demand_miss_rate::.cpu.data     0.034799                       # miss rate for demand accesses
system.cpu.dcache.demand_miss_rate::.switch_cpus.data     0.027682                       # miss rate for demand accesses
system.cpu.dcache.demand_miss_rate::.switch_cpus_1.data     0.049975                       # miss rate for demand accesses
system.cpu.dcache.demand_miss_rate::total     0.038647                       # miss rate for demand accesses
system.cpu.dcache.overall_miss_rate::.cpu.data     0.034799                       # miss rate for overall accesses
system.cpu.dcache.overall_miss_rate::.switch_cpus.data     0.027682                       # miss rate for overall accesses
system.cpu.dcache.overall_miss_rate::.switch_cpus_1.data     0.049975                       # miss rate for overall accesses
system.cpu.dcache.overall_miss_rate::total     0.038647                       # miss rate for overall accesses
system.cpu.dcache.demand_avg_miss_latency::.switch_cpus.data 32202.955561                       # average overall miss latency
system.cpu.dcache.demand_avg_miss_latency::.switch_cpus_1.data 33138.221662                       # average overall miss latency
system.cpu.dcache.demand_avg_miss_latency::total 12352.115153                       # average overall miss latency
system.cpu.dcache.overall_avg_miss_latency::.switch_cpus.data 32202.955561                       # average overall miss latency
system.cpu.dcache.overall_avg_miss_latency::.switch_cpus_1.data 33138.221662                       # average overall miss latency
system.cpu.dcache.overall_avg_miss_latency::total 12352.115153                       # average overall miss latency
system.cpu.dcache.blocked_cycles::no_mshrs     19947545                       # number of cycles access was blocked
system.cpu.dcache.blocked_cycles::no_targets          657                       # number of cycles access was blocked
system.cpu.dcache.blocked::no_mshrs           1130359                       # number of cycles access was blocked
system.cpu.dcache.blocked::no_targets              12                       # number of cycles access was blocked
system.cpu.dcache.avg_blocked_cycles::no_mshrs    17.647088                       # average number of cycles each access was blocked
system.cpu.dcache.avg_blocked_cycles::no_targets    54.750000                       # average number of cycles each access was blocked
system.cpu.dcache.writebacks::.writebacks      5763164                       # number of writebacks
system.cpu.dcache.writebacks::total           5763164                       # number of writebacks
system.cpu.dcache.demand_mshr_hits::.switch_cpus_1.data      2633071                       # number of demand (read+write) MSHR hits
system.cpu.dcache.demand_mshr_hits::total      2633071                       # number of demand (read+write) MSHR hits
system.cpu.dcache.overall_mshr_hits::.switch_cpus_1.data      2633071                       # number of overall MSHR hits
system.cpu.dcache.overall_mshr_hits::total      2633071                       # number of overall MSHR hits
system.cpu.dcache.demand_mshr_misses::.switch_cpus.data       594608                       # number of demand (read+write) MSHR misses
system.cpu.dcache.demand_mshr_misses::.switch_cpus_1.data      5769651                       # number of demand (read+write) MSHR misses
system.cpu.dcache.demand_mshr_misses::total      6364259                       # number of demand (read+write) MSHR misses
system.cpu.dcache.overall_mshr_misses::.switch_cpus.data       594608                       # number of overall MSHR misses
system.cpu.dcache.overall_mshr_misses::.switch_cpus_1.data      5769651                       # number of overall MSHR misses
system.cpu.dcache.overall_mshr_misses::total      6364259                       # number of overall MSHR misses
system.cpu.dcache.demand_mshr_miss_latency::.switch_cpus.data  18553527000                       # number of demand (read+write) MSHR miss cycles
system.cpu.dcache.demand_mshr_miss_latency::.switch_cpus_1.data 175321791202                       # number of demand (read+write) MSHR miss cycles
system.cpu.dcache.demand_mshr_miss_latency::total 193875318202                       # number of demand (read+write) MSHR miss cycles
system.cpu.dcache.overall_mshr_miss_latency::.switch_cpus.data  18553527000                       # number of overall MSHR miss cycles
system.cpu.dcache.overall_mshr_miss_latency::.switch_cpus_1.data 175321791202                       # number of overall MSHR miss cycles
system.cpu.dcache.overall_mshr_miss_latency::total 193875318202                       # number of overall MSHR miss cycles
system.cpu.dcache.demand_mshr_miss_rate::.switch_cpus.data     0.027682                       # mshr miss rate for demand accesses
system.cpu.dcache.demand_mshr_miss_rate::.switch_cpus_1.data     0.034315                       # mshr miss rate for demand accesses
system.cpu.dcache.demand_mshr_miss_rate::total     0.010209                       # mshr miss rate for demand accesses
system.cpu.dcache.overall_mshr_miss_rate::.switch_cpus.data     0.027682                       # mshr miss rate for overall accesses
system.cpu.dcache.overall_mshr_miss_rate::.switch_cpus_1.data     0.034315                       # mshr miss rate for overall accesses
system.cpu.dcache.overall_mshr_miss_rate::total     0.010209                       # mshr miss rate for overall accesses
system.cpu.dcache.demand_avg_mshr_miss_latency::.switch_cpus.data 31202.955561                       # average overall mshr miss latency
system.cpu.dcache.demand_avg_mshr_miss_latency::.switch_cpus_1.data 30386.897093                       # average overall mshr miss latency
system.cpu.dcache.demand_avg_mshr_miss_latency::total 30463.140831                       # average overall mshr miss latency
system.cpu.dcache.overall_avg_mshr_miss_latency::.switch_cpus.data 31202.955561                       # average overall mshr miss latency
system.cpu.dcache.overall_avg_mshr_miss_latency::.switch_cpus_1.data 30386.897093                       # average overall mshr miss latency
system.cpu.dcache.overall_avg_mshr_miss_latency::total 30463.140831                       # average overall mshr miss latency
system.cpu.dcache.replacements               19764660                       # number of replacements
system.cpu.dcache.ReadReq_hits::.cpu.data    311145526                       # number of ReadReq hits
system.cpu.dcache.ReadReq_hits::.switch_cpus.data     17716162                       # number of ReadReq hits
system.cpu.dcache.ReadReq_hits::.switch_cpus_1.data    126073877                       # number of ReadReq hits
system.cpu.dcache.ReadReq_hits::total       454935565                       # number of ReadReq hits
system.cpu.dcache.ReadReq_misses::.cpu.data     10610433                       # number of ReadReq misses
system.cpu.dcache.ReadReq_misses::.switch_cpus.data       451504                       # number of ReadReq misses
system.cpu.dcache.ReadReq_misses::.switch_cpus_1.data      7267444                       # number of ReadReq misses
system.cpu.dcache.ReadReq_misses::total      18329381                       # number of ReadReq misses
system.cpu.dcache.ReadReq_miss_latency::.switch_cpus.data  14127684000                       # number of ReadReq miss cycles
system.cpu.dcache.ReadReq_miss_latency::.switch_cpus_1.data 241552820500                       # number of ReadReq miss cycles
system.cpu.dcache.ReadReq_miss_latency::total 255680504500                       # number of ReadReq miss cycles
system.cpu.dcache.ReadReq_accesses::.cpu.data    321755959                       # number of ReadReq accesses(hits+misses)
system.cpu.dcache.ReadReq_accesses::.switch_cpus.data     18167666                       # number of ReadReq accesses(hits+misses)
system.cpu.dcache.ReadReq_accesses::.switch_cpus_1.data    133341321                       # number of ReadReq accesses(hits+misses)
system.cpu.dcache.ReadReq_accesses::total    473264946                       # number of ReadReq accesses(hits+misses)
system.cpu.dcache.ReadReq_miss_rate::.cpu.data     0.032977                       # miss rate for ReadReq accesses
system.cpu.dcache.ReadReq_miss_rate::.switch_cpus.data     0.024852                       # miss rate for ReadReq accesses
system.cpu.dcache.ReadReq_miss_rate::.switch_cpus_1.data     0.054503                       # miss rate for ReadReq accesses
system.cpu.dcache.ReadReq_miss_rate::total     0.038730                       # miss rate for ReadReq accesses
system.cpu.dcache.ReadReq_avg_miss_latency::.switch_cpus.data 31290.274283                       # average ReadReq miss latency
system.cpu.dcache.ReadReq_avg_miss_latency::.switch_cpus_1.data 33237.658316                       # average ReadReq miss latency
system.cpu.dcache.ReadReq_avg_miss_latency::total 13949.216534                       # average ReadReq miss latency
system.cpu.dcache.ReadReq_mshr_hits::.switch_cpus_1.data      2633052                       # number of ReadReq MSHR hits
system.cpu.dcache.ReadReq_mshr_hits::total      2633052                       # number of ReadReq MSHR hits
system.cpu.dcache.ReadReq_mshr_misses::.switch_cpus.data       451504                       # number of ReadReq MSHR misses
system.cpu.dcache.ReadReq_mshr_misses::.switch_cpus_1.data      4634392                       # number of ReadReq MSHR misses
system.cpu.dcache.ReadReq_mshr_misses::total      5085896                       # number of ReadReq MSHR misses
system.cpu.dcache.ReadReq_mshr_miss_latency::.switch_cpus.data  13676180000                       # number of ReadReq MSHR miss cycles
system.cpu.dcache.ReadReq_mshr_miss_latency::.switch_cpus_1.data 139558651000                       # number of ReadReq MSHR miss cycles
system.cpu.dcache.ReadReq_mshr_miss_latency::total 153234831000                       # number of ReadReq MSHR miss cycles
system.cpu.dcache.ReadReq_mshr_miss_rate::.switch_cpus.data     0.024852                       # mshr miss rate for ReadReq accesses
system.cpu.dcache.ReadReq_mshr_miss_rate::.switch_cpus_1.data     0.034756                       # mshr miss rate for ReadReq accesses
system.cpu.dcache.ReadReq_mshr_miss_rate::total     0.010746                       # mshr miss rate for ReadReq accesses
system.cpu.dcache.ReadReq_avg_mshr_miss_latency::.switch_cpus.data 30290.274283                       # average ReadReq mshr miss latency
system.cpu.dcache.ReadReq_avg_mshr_miss_latency::.switch_cpus_1.data 30113.691505                       # average ReadReq mshr miss latency
system.cpu.dcache.ReadReq_avg_mshr_miss_latency::total 30129.367765                       # average ReadReq mshr miss latency
system.cpu.dcache.WriteReq_hits::.cpu.data    107554147                       # number of WriteReq hits
system.cpu.dcache.WriteReq_hits::.switch_cpus.data      3169429                       # number of WriteReq hits
system.cpu.dcache.WriteReq_hits::.switch_cpus_1.data     33661084                       # number of WriteReq hits
system.cpu.dcache.WriteReq_hits::total      144384660                       # number of WriteReq hits
system.cpu.dcache.WriteReq_misses::.cpu.data      4485228                       # number of WriteReq misses
system.cpu.dcache.WriteReq_misses::.switch_cpus.data       143104                       # number of WriteReq misses
system.cpu.dcache.WriteReq_misses::.switch_cpus_1.data      1135278                       # number of WriteReq misses
system.cpu.dcache.WriteReq_misses::total      5763610                       # number of WriteReq misses
system.cpu.dcache.WriteReq_miss_latency::.switch_cpus.data   5020451000                       # number of WriteReq miss cycles
system.cpu.dcache.WriteReq_miss_latency::.switch_cpus_1.data  36898443702                       # number of WriteReq miss cycles
system.cpu.dcache.WriteReq_miss_latency::total  41918894702                       # number of WriteReq miss cycles
system.cpu.dcache.WriteReq_accesses::.cpu.data    112039375                       # number of WriteReq accesses(hits+misses)
system.cpu.dcache.WriteReq_accesses::.switch_cpus.data      3312533                       # number of WriteReq accesses(hits+misses)
system.cpu.dcache.WriteReq_accesses::.switch_cpus_1.data     34796362                       # number of WriteReq accesses(hits+misses)
system.cpu.dcache.WriteReq_accesses::total    150148270                       # number of WriteReq accesses(hits+misses)
system.cpu.dcache.WriteReq_miss_rate::.cpu.data     0.040033                       # miss rate for WriteReq accesses
system.cpu.dcache.WriteReq_miss_rate::.switch_cpus.data     0.043201                       # miss rate for WriteReq accesses
system.cpu.dcache.WriteReq_miss_rate::.switch_cpus_1.data     0.032626                       # miss rate for WriteReq accesses
system.cpu.dcache.WriteReq_miss_rate::total     0.038386                       # miss rate for WriteReq accesses
system.cpu.dcache.WriteReq_avg_miss_latency::.switch_cpus.data 35082.534381                       # average WriteReq miss latency
system.cpu.dcache.WriteReq_avg_miss_latency::.switch_cpus_1.data 32501.681264                       # average WriteReq miss latency
system.cpu.dcache.WriteReq_avg_miss_latency::total  7273.027617                       # average WriteReq miss latency
system.cpu.dcache.WriteReq_mshr_hits::.switch_cpus_1.data           19                       # number of WriteReq MSHR hits
system.cpu.dcache.WriteReq_mshr_hits::total           19                       # number of WriteReq MSHR hits
system.cpu.dcache.WriteReq_mshr_misses::.switch_cpus.data       143104                       # number of WriteReq MSHR misses
system.cpu.dcache.WriteReq_mshr_misses::.switch_cpus_1.data      1135259                       # number of WriteReq MSHR misses
system.cpu.dcache.WriteReq_mshr_misses::total      1278363                       # number of WriteReq MSHR misses
system.cpu.dcache.WriteReq_mshr_miss_latency::.switch_cpus.data   4877347000                       # number of WriteReq MSHR miss cycles
system.cpu.dcache.WriteReq_mshr_miss_latency::.switch_cpus_1.data  35763140202                       # number of WriteReq MSHR miss cycles
system.cpu.dcache.WriteReq_mshr_miss_latency::total  40640487202                       # number of WriteReq MSHR miss cycles
system.cpu.dcache.WriteReq_mshr_miss_rate::.switch_cpus.data     0.043201                       # mshr miss rate for WriteReq accesses
system.cpu.dcache.WriteReq_mshr_miss_rate::.switch_cpus_1.data     0.032626                       # mshr miss rate for WriteReq accesses
system.cpu.dcache.WriteReq_mshr_miss_rate::total     0.008514                       # mshr miss rate for WriteReq accesses
system.cpu.dcache.WriteReq_avg_mshr_miss_latency::.switch_cpus.data 34082.534381                       # average WriteReq mshr miss latency
system.cpu.dcache.WriteReq_avg_mshr_miss_latency::.switch_cpus_1.data 31502.186023                       # average WriteReq mshr miss latency
system.cpu.dcache.WriteReq_avg_mshr_miss_latency::total 31791.038384                       # average WriteReq mshr miss latency
system.cpu.dcache.power_state.pwrStateResidencyTicks::UNDEFINED 1392349022000                       # Cumulative time (in ticks) in various power states
system.cpu.dcache.tags.tagsinuse           511.995778                       # Cycle average of tags in use
system.cpu.dcache.tags.total_refs           620958559                       # Total number of references to valid blocks.
system.cpu.dcache.tags.sampled_refs          19765172                       # Sample count of references to valid blocks.
system.cpu.dcache.tags.avg_refs             31.416805                       # Average number of references to valid blocks.
system.cpu.dcache.tags.warmup_cycle              1500                       # Cycle when the warmup percentage was hit.
system.cpu.dcache.tags.occ_blocks::.cpu.data   377.417781                       # Average occupied blocks per requestor
system.cpu.dcache.tags.occ_blocks::.switch_cpus.data    39.459114                       # Average occupied blocks per requestor
system.cpu.dcache.tags.occ_blocks::.switch_cpus_1.data    95.118882                       # Average occupied blocks per requestor
system.cpu.dcache.tags.occ_percent::.cpu.data     0.737144                       # Average percentage of cache occupancy
system.cpu.dcache.tags.occ_percent::.switch_cpus.data     0.077069                       # Average percentage of cache occupancy
system.cpu.dcache.tags.occ_percent::.switch_cpus_1.data     0.185779                       # Average percentage of cache occupancy
system.cpu.dcache.tags.occ_percent::total     0.999992                       # Average percentage of cache occupancy
system.cpu.dcache.tags.occ_task_id_blocks::1024          512                       # Occupied blocks per task id
system.cpu.dcache.tags.age_task_id_blocks_1024::0          123                       # Occupied blocks per task id
system.cpu.dcache.tags.age_task_id_blocks_1024::1          389                       # Occupied blocks per task id
system.cpu.dcache.tags.occ_task_id_percent::1024            1                       # Percentage of cache occupancy per task id
system.cpu.dcache.tags.tag_accesses        2513418036                       # Number of tag accesses
system.cpu.dcache.tags.data_accesses       2513418036                       # Number of data accesses
system.cpu.dcache.tags.power_state.pwrStateResidencyTicks::UNDEFINED 1392349022000                       # Cumulative time (in ticks) in various power states
system.cpu.power_state.numTransitions               2                       # Number of power state transitions
system.cpu.power_state.pwrStateResidencyTicks::ON 1026110788500                       # Cumulative time (in ticks) in various power states
system.cpu.power_state.pwrStateResidencyTicks::OFF 366238233500                       # Cumulative time (in ticks) in various power states

---------- End Simulation Statistics   ----------
