
---------- Begin Simulation Statistics ----------
final_tick                               1941383824000                       # Number of ticks from beginning of simulation (restored from checkpoints and never reset)
host_inst_rate                                 112645                       # Simulator instruction rate (inst/s)
host_mem_usage                                4564436                       # Number of bytes of host memory used
host_op_rate                                   213230                       # Simulator op (including micro ops) rate (op/s)
host_seconds                                 18198.69                       # Real time elapsed on the host
host_tick_rate                               40135304                       # Simulator tick rate (ticks/s)
sim_freq                                 1000000000000                       # Frequency of simulated ticks
sim_insts                                  2050000004                       # Number of instructions simulated
sim_ops                                    3880515000                       # Number of ops (including micro ops) simulated
sim_seconds                                  0.730410                       # Number of seconds simulated
sim_ticks                                730409928000                       # Number of ticks simulated
system.cpu.committedInsts                           0                       # Number of instructions committed
system.cpu.committedOps                             0                       # Number of ops (including micro ops) committed
system.cpu.dtb.rdAccesses                           0                       # TLB accesses on read requests
system.cpu.dtb.rdMisses                             0                       # TLB misses on read requests
system.cpu.dtb.wrAccesses                           0                       # TLB accesses on write requests
system.cpu.dtb.wrMisses                             0                       # TLB misses on write requests
system.cpu.idle_fraction                            0                       # Percentage of idle cycles
system.cpu.itb.rdAccesses                           0                       # TLB accesses on read requests
system.cpu.itb.rdMisses                             0                       # TLB misses on read requests
system.cpu.itb.wrAccesses                           0                       # TLB accesses on write requests
system.cpu.itb.wrMisses                             0                       # TLB misses on write requests
system.cpu.not_idle_fraction                        1                       # Percentage of non-idle cycles
system.cpu.numCycles                                0                       # number of cpu cycles simulated
system.cpu.numWorkItemsCompleted                    0                       # number of work items this cpu completed
system.cpu.numWorkItemsStarted                      0                       # number of work items this cpu started
system.cpu.num_busy_cycles                          0                       # Number of busy cycles
system.cpu.num_conditional_control_insts            0                       # number of instructions that are conditional controls
system.cpu.num_fp_alu_accesses                      0                       # Number of float alu accesses
system.cpu.num_fp_insts                             0                       # number of float instructions
system.cpu.num_fp_register_reads                    0                       # number of times the floating registers were read
system.cpu.num_fp_register_writes                   0                       # number of times the floating registers were written
system.cpu.num_func_calls                           0                       # number of times a function call or return occured
system.cpu.num_idle_cycles                          0                       # Number of idle cycles
system.cpu.num_int_alu_accesses                     0                       # Number of integer alu accesses
system.cpu.num_int_insts                            0                       # number of integer instructions
system.cpu.num_int_register_reads                   0                       # number of times the integer registers were read
system.cpu.num_int_register_writes                  0                       # number of times the integer registers were written
system.cpu.num_load_insts                           0                       # Number of load instructions
system.cpu.num_mem_refs                             0                       # number of memory refs
system.cpu.num_store_insts                          0                       # Number of store instructions
system.cpu.num_vec_alu_accesses                     0                       # Number of vector alu accesses
system.cpu.num_vec_insts                            0                       # number of vector instructions
system.cpu.num_vec_register_reads                   0                       # number of times the vector registers were read
system.cpu.num_vec_register_writes                  0                       # number of times the vector registers were written
system.cpu.op_class::No_OpClass                     0                       # Class of executed instruction
system.cpu.op_class::IntAlu                         0                       # Class of executed instruction
system.cpu.op_class::IntMult                        0                       # Class of executed instruction
system.cpu.op_class::IntDiv                         0                       # Class of executed instruction
system.cpu.op_class::FloatAdd                       0                       # Class of executed instruction
system.cpu.op_class::FloatCmp                       0                       # Class of executed instruction
system.cpu.op_class::FloatCvt                       0                       # Class of executed instruction
system.cpu.op_class::FloatMult                      0                       # Class of executed instruction
system.cpu.op_class::FloatMultAcc                   0                       # Class of executed instruction
system.cpu.op_class::FloatDiv                       0                       # Class of executed instruction
system.cpu.op_class::FloatMisc                      0                       # Class of executed instruction
system.cpu.op_class::FloatSqrt                      0                       # Class of executed instruction
system.cpu.op_class::SimdAdd                        0                       # Class of executed instruction
system.cpu.op_class::SimdAddAcc                     0                       # Class of executed instruction
system.cpu.op_class::SimdAlu                        0                       # Class of executed instruction
system.cpu.op_class::SimdCmp                        0                       # Class of executed instruction
system.cpu.op_class::SimdCvt                        0                       # Class of executed instruction
system.cpu.op_class::SimdMisc                       0                       # Class of executed instruction
system.cpu.op_class::SimdMult                       0                       # Class of executed instruction
system.cpu.op_class::SimdMultAcc                    0                       # Class of executed instruction
system.cpu.op_class::SimdShift                      0                       # Class of executed instruction
system.cpu.op_class::SimdShiftAcc                   0                       # Class of executed instruction
system.cpu.op_class::SimdDiv                        0                       # Class of executed instruction
system.cpu.op_class::SimdSqrt                       0                       # Class of executed instruction
system.cpu.op_class::SimdFloatAdd                   0                       # Class of executed instruction
system.cpu.op_class::SimdFloatAlu                   0                       # Class of executed instruction
system.cpu.op_class::SimdFloatCmp                   0                       # Class of executed instruction
system.cpu.op_class::SimdFloatCvt                   0                       # Class of executed instruction
system.cpu.op_class::SimdFloatDiv                   0                       # Class of executed instruction
system.cpu.op_class::SimdFloatMisc                  0                       # Class of executed instruction
system.cpu.op_class::SimdFloatMult                  0                       # Class of executed instruction
system.cpu.op_class::SimdFloatMultAcc               0                       # Class of executed instruction
system.cpu.op_class::SimdFloatSqrt                  0                       # Class of executed instruction
system.cpu.op_class::SimdReduceAdd                  0                       # Class of executed instruction
system.cpu.op_class::SimdReduceAlu                  0                       # Class of executed instruction
system.cpu.op_class::SimdReduceCmp                  0                       # Class of executed instruction
system.cpu.op_class::SimdFloatReduceAdd             0                       # Class of executed instruction
system.cpu.op_class::SimdFloatReduceCmp             0                       # Class of executed instruction
system.cpu.op_class::SimdAes                        0                       # Class of executed instruction
system.cpu.op_class::SimdAesMix                     0                       # Class of executed instruction
system.cpu.op_class::SimdSha1Hash                   0                       # Class of executed instruction
system.cpu.op_class::SimdSha1Hash2                  0                       # Class of executed instruction
system.cpu.op_class::SimdSha256Hash                 0                       # Class of executed instruction
system.cpu.op_class::SimdSha256Hash2                0                       # Class of executed instruction
system.cpu.op_class::SimdShaSigma2                  0                       # Class of executed instruction
system.cpu.op_class::SimdShaSigma3                  0                       # Class of executed instruction
system.cpu.op_class::SimdPredAlu                    0                       # Class of executed instruction
system.cpu.op_class::MemRead                        0                       # Class of executed instruction
system.cpu.op_class::MemWrite                       0                       # Class of executed instruction
system.cpu.op_class::FloatMemRead                   0                       # Class of executed instruction
system.cpu.op_class::FloatMemWrite                  0                       # Class of executed instruction
system.cpu.op_class::IprAccess                      0                       # Class of executed instruction
system.cpu.op_class::InstPrefetch                   0                       # Class of executed instruction
system.cpu.op_class::total                          0                       # Class of executed instruction
system.cpu.workload.numSyscalls                    12                       # Number of system calls
system.membus.snoop_filter.hit_multi_requests            0                       # Number of requests hitting in the snoop filter with multiple (>1) holders of the requested data.
system.membus.snoop_filter.hit_multi_snoops            0                       # Number of snoops hitting in the snoop filter with multiple (>1) holders of the requested data.
system.membus.snoop_filter.hit_single_requests       359996                       # Number of requests hitting in the snoop filter with a single holder of the requested data.
system.membus.snoop_filter.hit_single_snoops            0                       # Number of snoops hitting in the snoop filter with a single holder of the requested data.
system.membus.snoop_filter.tot_requests        719411                       # Total number of requests made to the snoop filter.
system.membus.snoop_filter.tot_snoops               0                       # Total number of snoops made to the snoop filter.
system.switch_cpus.committedInsts                   0                       # Number of instructions committed
system.switch_cpus.committedOps                     0                       # Number of ops (including micro ops) committed
system.switch_cpus.dtb.rdAccesses                   0                       # TLB accesses on read requests
system.switch_cpus.dtb.rdMisses                     0                       # TLB misses on read requests
system.switch_cpus.dtb.wrAccesses                   0                       # TLB accesses on write requests
system.switch_cpus.dtb.wrMisses                     0                       # TLB misses on write requests
system.switch_cpus.idle_fraction                    0                       # Percentage of idle cycles
system.switch_cpus.itb.rdAccesses                   0                       # TLB accesses on read requests
system.switch_cpus.itb.rdMisses                     0                       # TLB misses on read requests
system.switch_cpus.itb.wrAccesses                   0                       # TLB accesses on write requests
system.switch_cpus.itb.wrMisses                     0                       # TLB misses on write requests
system.switch_cpus.not_idle_fraction                1                       # Percentage of non-idle cycles
system.switch_cpus.numCycles                        0                       # number of cpu cycles simulated
system.switch_cpus.numWorkItemsCompleted            0                       # number of work items this cpu completed
system.switch_cpus.numWorkItemsStarted              0                       # number of work items this cpu started
system.switch_cpus.num_busy_cycles                  0                       # Number of busy cycles
system.switch_cpus.num_conditional_control_insts            0                       # number of instructions that are conditional controls
system.switch_cpus.num_fp_alu_accesses              0                       # Number of float alu accesses
system.switch_cpus.num_fp_insts                     0                       # number of float instructions
system.switch_cpus.num_fp_register_reads            0                       # number of times the floating registers were read
system.switch_cpus.num_fp_register_writes            0                       # number of times the floating registers were written
system.switch_cpus.num_func_calls                   0                       # number of times a function call or return occured
system.switch_cpus.num_idle_cycles                  0                       # Number of idle cycles
system.switch_cpus.num_int_alu_accesses             0                       # Number of integer alu accesses
system.switch_cpus.num_int_insts                    0                       # number of integer instructions
system.switch_cpus.num_int_register_reads            0                       # number of times the integer registers were read
system.switch_cpus.num_int_register_writes            0                       # number of times the integer registers were written
system.switch_cpus.num_load_insts                   0                       # Number of load instructions
system.switch_cpus.num_mem_refs                     0                       # number of memory refs
system.switch_cpus.num_store_insts                  0                       # Number of store instructions
system.switch_cpus.num_vec_alu_accesses             0                       # Number of vector alu accesses
system.switch_cpus.num_vec_insts                    0                       # number of vector instructions
system.switch_cpus.num_vec_register_reads            0                       # number of times the vector registers were read
system.switch_cpus.num_vec_register_writes            0                       # number of times the vector registers were written
system.switch_cpus.op_class::No_OpClass             0                       # Class of executed instruction
system.switch_cpus.op_class::IntAlu                 0                       # Class of executed instruction
system.switch_cpus.op_class::IntMult                0                       # Class of executed instruction
system.switch_cpus.op_class::IntDiv                 0                       # Class of executed instruction
system.switch_cpus.op_class::FloatAdd               0                       # Class of executed instruction
system.switch_cpus.op_class::FloatCmp               0                       # Class of executed instruction
system.switch_cpus.op_class::FloatCvt               0                       # Class of executed instruction
system.switch_cpus.op_class::FloatMult              0                       # Class of executed instruction
system.switch_cpus.op_class::FloatMultAcc            0                       # Class of executed instruction
system.switch_cpus.op_class::FloatDiv               0                       # Class of executed instruction
system.switch_cpus.op_class::FloatMisc              0                       # Class of executed instruction
system.switch_cpus.op_class::FloatSqrt              0                       # Class of executed instruction
system.switch_cpus.op_class::SimdAdd                0                       # Class of executed instruction
system.switch_cpus.op_class::SimdAddAcc             0                       # Class of executed instruction
system.switch_cpus.op_class::SimdAlu                0                       # Class of executed instruction
system.switch_cpus.op_class::SimdCmp                0                       # Class of executed instruction
system.switch_cpus.op_class::SimdCvt                0                       # Class of executed instruction
system.switch_cpus.op_class::SimdMisc               0                       # Class of executed instruction
system.switch_cpus.op_class::SimdMult               0                       # Class of executed instruction
system.switch_cpus.op_class::SimdMultAcc            0                       # Class of executed instruction
system.switch_cpus.op_class::SimdShift              0                       # Class of executed instruction
system.switch_cpus.op_class::SimdShiftAcc            0                       # Class of executed instruction
system.switch_cpus.op_class::SimdDiv                0                       # Class of executed instruction
system.switch_cpus.op_class::SimdSqrt               0                       # Class of executed instruction
system.switch_cpus.op_class::SimdFloatAdd            0                       # Class of executed instruction
system.switch_cpus.op_class::SimdFloatAlu            0                       # Class of executed instruction
system.switch_cpus.op_class::SimdFloatCmp            0                       # Class of executed instruction
system.switch_cpus.op_class::SimdFloatCvt            0                       # Class of executed instruction
system.switch_cpus.op_class::SimdFloatDiv            0                       # Class of executed instruction
system.switch_cpus.op_class::SimdFloatMisc            0                       # Class of executed instruction
system.switch_cpus.op_class::SimdFloatMult            0                       # Class of executed instruction
system.switch_cpus.op_class::SimdFloatMultAcc            0                       # Class of executed instruction
system.switch_cpus.op_class::SimdFloatSqrt            0                       # Class of executed instruction
system.switch_cpus.op_class::SimdReduceAdd            0                       # Class of executed instruction
system.switch_cpus.op_class::SimdReduceAlu            0                       # Class of executed instruction
system.switch_cpus.op_class::SimdReduceCmp            0                       # Class of executed instruction
system.switch_cpus.op_class::SimdFloatReduceAdd            0                       # Class of executed instruction
system.switch_cpus.op_class::SimdFloatReduceCmp            0                       # Class of executed instruction
system.switch_cpus.op_class::SimdAes                0                       # Class of executed instruction
system.switch_cpus.op_class::SimdAesMix             0                       # Class of executed instruction
system.switch_cpus.op_class::SimdSha1Hash            0                       # Class of executed instruction
system.switch_cpus.op_class::SimdSha1Hash2            0                       # Class of executed instruction
system.switch_cpus.op_class::SimdSha256Hash            0                       # Class of executed instruction
system.switch_cpus.op_class::SimdSha256Hash2            0                       # Class of executed instruction
system.switch_cpus.op_class::SimdShaSigma2            0                       # Class of executed instruction
system.switch_cpus.op_class::SimdShaSigma3            0                       # Class of executed instruction
system.switch_cpus.op_class::SimdPredAlu            0                       # Class of executed instruction
system.switch_cpus.op_class::MemRead                0                       # Class of executed instruction
system.switch_cpus.op_class::MemWrite               0                       # Class of executed instruction
system.switch_cpus.op_class::FloatMemRead            0                       # Class of executed instruction
system.switch_cpus.op_class::FloatMemWrite            0                       # Class of executed instruction
system.switch_cpus.op_class::IprAccess              0                       # Class of executed instruction
system.switch_cpus.op_class::InstPrefetch            0                       # Class of executed instruction
system.switch_cpus.op_class::total                  0                       # Class of executed instruction
system.switch_cpus_1.branchPred.BTBCorrect            0                       # Number of correct BTB predictions (this stat may not work properly.
system.switch_cpus_1.branchPred.BTBHitPct          nan                       # BTB Hit Percentage
system.switch_cpus_1.branchPred.BTBHits             0                       # Number of BTB hits
system.switch_cpus_1.branchPred.BTBLookups            0                       # Number of BTB lookups
system.switch_cpus_1.branchPred.RASInCorrect        13333                       # Number of incorrect RAS predictions.
system.switch_cpus_1.branchPred.condIncorrect     81914853                       # Number of conditional branches incorrect
system.switch_cpus_1.branchPred.condPredicted    619544599                       # Number of conditional branches predicted
system.switch_cpus_1.branchPred.indirectHits     90239668                       # Number of indirect target hits.
system.switch_cpus_1.branchPred.indirectLookups    391560752                       # Number of indirect predictor lookups.
system.switch_cpus_1.branchPred.indirectMisses    301321084                       # Number of indirect misses.
system.switch_cpus_1.branchPred.lookups     722127291                       # Number of BP lookups
system.switch_cpus_1.branchPred.usedRAS      32538923                       # Number of times the RAS was used to get a target.
system.switch_cpus_1.branchPredindirectMispredicted     63272311                       # Number of mispredicted indirect branches.
system.switch_cpus_1.cc_regfile_reads      1500485942                       # number of cc regfile reads
system.switch_cpus_1.cc_regfile_writes     1020903605                       # number of cc regfile writes
system.switch_cpus_1.commit.amos                    0                       # Number of atomic instructions committed
system.switch_cpus_1.commit.branchMispredicts     81914863                       # The number of times a branch was mispredicted
system.switch_cpus_1.commit.branches        229908754                       # Number of branches committed
system.switch_cpus_1.commit.bw_lim_events    118427364                       # number cycles where commit BW limit reached
system.switch_cpus_1.commit.commitNonSpecStalls           48                       # The number of times commit has been forced to stall to communicate backwards
system.switch_cpus_1.commit.commitSquashedInsts   2268450809                       # The number of squashed insts skipped by commit
system.switch_cpus_1.commit.committedInsts   1000000001                       # Number of instructions committed
system.switch_cpus_1.commit.committedOps   1892299038                       # Number of ops (including micro ops) committed
system.switch_cpus_1.commit.committed_per_cycle::samples   1097610393                       # Number of insts commited each cycle
system.switch_cpus_1.commit.committed_per_cycle::mean     1.724017                       # Number of insts commited each cycle
system.switch_cpus_1.commit.committed_per_cycle::stdev     2.668764                       # Number of insts commited each cycle
system.switch_cpus_1.commit.committed_per_cycle::underflows            0      0.00%      0.00% # Number of insts commited each cycle
system.switch_cpus_1.commit.committed_per_cycle::0    612523185     55.81%     55.81% # Number of insts commited each cycle
system.switch_cpus_1.commit.committed_per_cycle::1    143407931     13.07%     68.87% # Number of insts commited each cycle
system.switch_cpus_1.commit.committed_per_cycle::2     59633047      5.43%     74.30% # Number of insts commited each cycle
system.switch_cpus_1.commit.committed_per_cycle::3     70548440      6.43%     80.73% # Number of insts commited each cycle
system.switch_cpus_1.commit.committed_per_cycle::4     37334616      3.40%     84.13% # Number of insts commited each cycle
system.switch_cpus_1.commit.committed_per_cycle::5     25650564      2.34%     86.47% # Number of insts commited each cycle
system.switch_cpus_1.commit.committed_per_cycle::6     17627225      1.61%     88.08% # Number of insts commited each cycle
system.switch_cpus_1.commit.committed_per_cycle::7     12458021      1.14%     89.21% # Number of insts commited each cycle
system.switch_cpus_1.commit.committed_per_cycle::8    118427364     10.79%    100.00% # Number of insts commited each cycle
system.switch_cpus_1.commit.committed_per_cycle::overflows            0      0.00%    100.00% # Number of insts commited each cycle
system.switch_cpus_1.commit.committed_per_cycle::min_value            0                       # Number of insts commited each cycle
system.switch_cpus_1.commit.committed_per_cycle::max_value            8                       # Number of insts commited each cycle
system.switch_cpus_1.commit.committed_per_cycle::total   1097610393                       # Number of insts commited each cycle
system.switch_cpus_1.commit.fp_insts             5665                       # Number of committed floating point instructions.
system.switch_cpus_1.commit.function_calls      9729213                       # Number of function calls committed.
system.switch_cpus_1.commit.int_insts      1885841300                       # Number of committed integer instructions.
system.switch_cpus_1.commit.loads           241042934                       # Number of loads committed
system.switch_cpus_1.commit.membars                 0                       # Number of memory barriers committed
system.switch_cpus_1.commit.op_class_0::No_OpClass      6152409      0.33%      0.33% # Class of committed instruction
system.switch_cpus_1.commit.op_class_0::IntAlu   1543783852     81.58%     81.91% # Class of committed instruction
system.switch_cpus_1.commit.op_class_0::IntMult       177059      0.01%     81.92% # Class of committed instruction
system.switch_cpus_1.commit.op_class_0::IntDiv      4800256      0.25%     82.17% # Class of committed instruction
system.switch_cpus_1.commit.op_class_0::FloatAdd          245      0.00%     82.17% # Class of committed instruction
system.switch_cpus_1.commit.op_class_0::FloatCmp            0      0.00%     82.17% # Class of committed instruction
system.switch_cpus_1.commit.op_class_0::FloatCvt            0      0.00%     82.17% # Class of committed instruction
system.switch_cpus_1.commit.op_class_0::FloatMult            0      0.00%     82.17% # Class of committed instruction
system.switch_cpus_1.commit.op_class_0::FloatMultAcc            0      0.00%     82.17% # Class of committed instruction
system.switch_cpus_1.commit.op_class_0::FloatDiv            0      0.00%     82.17% # Class of committed instruction
system.switch_cpus_1.commit.op_class_0::FloatMisc            0      0.00%     82.17% # Class of committed instruction
system.switch_cpus_1.commit.op_class_0::FloatSqrt            0      0.00%     82.17% # Class of committed instruction
system.switch_cpus_1.commit.op_class_0::SimdAdd            0      0.00%     82.17% # Class of committed instruction
system.switch_cpus_1.commit.op_class_0::SimdAddAcc            0      0.00%     82.17% # Class of committed instruction
system.switch_cpus_1.commit.op_class_0::SimdAlu          536      0.00%     82.17% # Class of committed instruction
system.switch_cpus_1.commit.op_class_0::SimdCmp            0      0.00%     82.17% # Class of committed instruction
system.switch_cpus_1.commit.op_class_0::SimdCvt          994      0.00%     82.17% # Class of committed instruction
system.switch_cpus_1.commit.op_class_0::SimdMisc         2591      0.00%     82.17% # Class of committed instruction
system.switch_cpus_1.commit.op_class_0::SimdMult            0      0.00%     82.17% # Class of committed instruction
system.switch_cpus_1.commit.op_class_0::SimdMultAcc            0      0.00%     82.17% # Class of committed instruction
system.switch_cpus_1.commit.op_class_0::SimdShift            0      0.00%     82.17% # Class of committed instruction
system.switch_cpus_1.commit.op_class_0::SimdShiftAcc            0      0.00%     82.17% # Class of committed instruction
system.switch_cpus_1.commit.op_class_0::SimdDiv            0      0.00%     82.17% # Class of committed instruction
system.switch_cpus_1.commit.op_class_0::SimdSqrt            0      0.00%     82.17% # Class of committed instruction
system.switch_cpus_1.commit.op_class_0::SimdFloatAdd            0      0.00%     82.17% # Class of committed instruction
system.switch_cpus_1.commit.op_class_0::SimdFloatAlu            0      0.00%     82.17% # Class of committed instruction
system.switch_cpus_1.commit.op_class_0::SimdFloatCmp            0      0.00%     82.17% # Class of committed instruction
system.switch_cpus_1.commit.op_class_0::SimdFloatCvt           10      0.00%     82.17% # Class of committed instruction
system.switch_cpus_1.commit.op_class_0::SimdFloatDiv            1      0.00%     82.17% # Class of committed instruction
system.switch_cpus_1.commit.op_class_0::SimdFloatMisc            0      0.00%     82.17% # Class of committed instruction
system.switch_cpus_1.commit.op_class_0::SimdFloatMult            1      0.00%     82.17% # Class of committed instruction
system.switch_cpus_1.commit.op_class_0::SimdFloatMultAcc            0      0.00%     82.17% # Class of committed instruction
system.switch_cpus_1.commit.op_class_0::SimdFloatSqrt            0      0.00%     82.17% # Class of committed instruction
system.switch_cpus_1.commit.op_class_0::SimdReduceAdd            0      0.00%     82.17% # Class of committed instruction
system.switch_cpus_1.commit.op_class_0::SimdReduceAlu            0      0.00%     82.17% # Class of committed instruction
system.switch_cpus_1.commit.op_class_0::SimdReduceCmp            0      0.00%     82.17% # Class of committed instruction
system.switch_cpus_1.commit.op_class_0::SimdFloatReduceAdd            0      0.00%     82.17% # Class of committed instruction
system.switch_cpus_1.commit.op_class_0::SimdFloatReduceCmp            0      0.00%     82.17% # Class of committed instruction
system.switch_cpus_1.commit.op_class_0::SimdAes            0      0.00%     82.17% # Class of committed instruction
system.switch_cpus_1.commit.op_class_0::SimdAesMix            0      0.00%     82.17% # Class of committed instruction
system.switch_cpus_1.commit.op_class_0::SimdSha1Hash            0      0.00%     82.17% # Class of committed instruction
system.switch_cpus_1.commit.op_class_0::SimdSha1Hash2            0      0.00%     82.17% # Class of committed instruction
system.switch_cpus_1.commit.op_class_0::SimdSha256Hash            0      0.00%     82.17% # Class of committed instruction
system.switch_cpus_1.commit.op_class_0::SimdSha256Hash2            0      0.00%     82.17% # Class of committed instruction
system.switch_cpus_1.commit.op_class_0::SimdShaSigma2            0      0.00%     82.17% # Class of committed instruction
system.switch_cpus_1.commit.op_class_0::SimdShaSigma3            0      0.00%     82.17% # Class of committed instruction
system.switch_cpus_1.commit.op_class_0::SimdPredAlu            0      0.00%     82.17% # Class of committed instruction
system.switch_cpus_1.commit.op_class_0::MemRead    241042382     12.74%     94.91% # Class of committed instruction
system.switch_cpus_1.commit.op_class_0::MemWrite     96338141      5.09%    100.00% # Class of committed instruction
system.switch_cpus_1.commit.op_class_0::FloatMemRead          552      0.00%    100.00% # Class of committed instruction
system.switch_cpus_1.commit.op_class_0::FloatMemWrite            9      0.00%    100.00% # Class of committed instruction
system.switch_cpus_1.commit.op_class_0::IprAccess            0      0.00%    100.00% # Class of committed instruction
system.switch_cpus_1.commit.op_class_0::InstPrefetch            0      0.00%    100.00% # Class of committed instruction
system.switch_cpus_1.commit.op_class_0::total   1892299038                       # Class of committed instruction
system.switch_cpus_1.commit.refs            337381084                       # Number of memory references committed
system.switch_cpus_1.commit.swp_count               0                       # Number of s/w prefetches committed
system.switch_cpus_1.commit.vec_insts               0                       # Number of committed Vector instructions.
system.switch_cpus_1.committedInsts        1000000001                       # Number of Instructions Simulated
system.switch_cpus_1.committedOps          1892299038                       # Number of Ops (including micro ops) Simulated
system.switch_cpus_1.cpi                     1.460820                       # CPI: Cycles Per Instruction
system.switch_cpus_1.cpi_total               1.460820                       # CPI: Total CPI of All Threads
system.switch_cpus_1.decode.BlockedCycles    328088568                       # Number of cycles decode is blocked
system.switch_cpus_1.decode.DecodedInsts   5410520059                       # Number of instructions handled by decode
system.switch_cpus_1.decode.IdleCycles      305935638                       # Number of cycles decode is idle
system.switch_cpus_1.decode.RunCycles       675732886                       # Number of cycles decode is running
system.switch_cpus_1.decode.SquashCycles     82048194                       # Number of cycles decode is squashing
system.switch_cpus_1.decode.UnblockCycles     67546338                       # Number of cycles decode is unblocking
system.switch_cpus_1.dtb.rdAccesses         389662127                       # TLB accesses on read requests
system.switch_cpus_1.dtb.rdMisses             1333851                       # TLB misses on read requests
system.switch_cpus_1.dtb.wrAccesses         134376732                       # TLB accesses on write requests
system.switch_cpus_1.dtb.wrMisses              457270                       # TLB misses on write requests
system.switch_cpus_1.fetch.Branches         722127291                       # Number of branches that fetch encountered
system.switch_cpus_1.fetch.CacheLines       331918599                       # Number of cache lines fetched
system.switch_cpus_1.fetch.Cycles           981986203                       # Number of cycles fetch has run and was not squashing or blocked
system.switch_cpus_1.fetch.IcacheSquashes     19781704                       # Number of outstanding Icache misses that were squashed
system.switch_cpus_1.fetch.IcacheWaitRetryStallCycles          262                       # Number of stall cycles due to full MSHR
system.switch_cpus_1.fetch.Insts           3153405473                       # Number of instructions fetch has processed
system.switch_cpus_1.fetch.MiscStallCycles           29                       # Number of cycles fetch has spent waiting on interrupts, or bad addresses, or out of MSHRs
system.switch_cpus_1.fetch.PendingTrapStallCycles          146                       # Number of stall cycles due to pending traps
system.switch_cpus_1.fetch.SquashCycles     164096388                       # Number of cycles fetch has spent squashing
system.switch_cpus_1.fetch.branchRate        0.494330                       # Number of branch fetches per cycle
system.switch_cpus_1.fetch.icacheStallCycles    395316798                       # Number of cycles fetch is stalled on an Icache miss
system.switch_cpus_1.fetch.predictedBranches    122778591                       # Number of branches that fetch has predicted taken
system.switch_cpus_1.fetch.rate              2.158655                       # Number of inst fetches per cycle
system.switch_cpus_1.fetch.rateDist::samples   1459351632                       # Number of instructions fetched each cycle (Total)
system.switch_cpus_1.fetch.rateDist::mean     4.106548                       # Number of instructions fetched each cycle (Total)
system.switch_cpus_1.fetch.rateDist::stdev     3.670493                       # Number of instructions fetched each cycle (Total)
system.switch_cpus_1.fetch.rateDist::underflows            0      0.00%      0.00% # Number of instructions fetched each cycle (Total)
system.switch_cpus_1.fetch.rateDist::0      568436466     38.95%     38.95% # Number of instructions fetched each cycle (Total)
system.switch_cpus_1.fetch.rateDist::1       29118458      2.00%     40.95% # Number of instructions fetched each cycle (Total)
system.switch_cpus_1.fetch.rateDist::2       47517276      3.26%     44.20% # Number of instructions fetched each cycle (Total)
system.switch_cpus_1.fetch.rateDist::3       34609397      2.37%     46.57% # Number of instructions fetched each cycle (Total)
system.switch_cpus_1.fetch.rateDist::4       38712559      2.65%     49.23% # Number of instructions fetched each cycle (Total)
system.switch_cpus_1.fetch.rateDist::5       57116046      3.91%     53.14% # Number of instructions fetched each cycle (Total)
system.switch_cpus_1.fetch.rateDist::6       60558936      4.15%     57.29% # Number of instructions fetched each cycle (Total)
system.switch_cpus_1.fetch.rateDist::7       25127067      1.72%     59.01% # Number of instructions fetched each cycle (Total)
system.switch_cpus_1.fetch.rateDist::8      598155427     40.99%    100.00% # Number of instructions fetched each cycle (Total)
system.switch_cpus_1.fetch.rateDist::overflows            0      0.00%    100.00% # Number of instructions fetched each cycle (Total)
system.switch_cpus_1.fetch.rateDist::min_value            0                       # Number of instructions fetched each cycle (Total)
system.switch_cpus_1.fetch.rateDist::max_value            8                       # Number of instructions fetched each cycle (Total)
system.switch_cpus_1.fetch.rateDist::total   1459351632                       # Number of instructions fetched each cycle (Total)
system.switch_cpus_1.fp_regfile_reads           13804                       # number of floating regfile reads
system.switch_cpus_1.fp_regfile_writes           6394                       # number of floating regfile writes
system.switch_cpus_1.idleCycles               1468224                       # Total number of cycles that the CPU has spent unscheduled due to idling
system.switch_cpus_1.iew.branchMispredicts    115046573                       # Number of branch mispredicts detected at execute
system.switch_cpus_1.iew.exec_branches      336455338                       # Number of branches executed
system.switch_cpus_1.iew.exec_nop                   0                       # number of nop insts executed
system.switch_cpus_1.iew.exec_rate           2.200550                       # Inst execution rate
system.switch_cpus_1.iew.exec_refs          524041505                       # number of memory reference insts executed
system.switch_cpus_1.iew.exec_stores        134376522                       # Number of stores executed
system.switch_cpus_1.iew.exec_swp                   0                       # number of swp insts executed
system.switch_cpus_1.iew.iewBlockCycles     279877036                       # Number of cycles IEW is blocking
system.switch_cpus_1.iew.iewDispLoadInsts    521869900                       # Number of dispatched load instructions
system.switch_cpus_1.iew.iewDispNonSpecInsts           94                       # Number of dispatched non-speculative instructions
system.switch_cpus_1.iew.iewDispSquashedInsts      1359677                       # Number of squashed instructions skipped by dispatch
system.switch_cpus_1.iew.iewDispStoreInsts    216907496                       # Number of dispatched store instructions
system.switch_cpus_1.iew.iewDispatchedInsts   4160725134                       # Number of instructions dispatched to IQ
system.switch_cpus_1.iew.iewExecLoadInsts    389664983                       # Number of load instructions executed
system.switch_cpus_1.iew.iewExecSquashedInsts    209072995                       # Number of squashed instructions skipped in execute
system.switch_cpus_1.iew.iewExecutedInsts   3214607596                       # Number of executed instructions
system.switch_cpus_1.iew.iewIQFullEvents        29223                       # Number of times the IQ has become full, causing a stall
system.switch_cpus_1.iew.iewIdleCycles              0                       # Number of cycles IEW is idle
system.switch_cpus_1.iew.iewLSQFullEvents       459010                       # Number of times the LSQ has become full, causing a stall
system.switch_cpus_1.iew.iewSquashCycles     82048194                       # Number of cycles IEW is squashing
system.switch_cpus_1.iew.iewUnblockCycles       496096                       # Number of cycles IEW is unblocking
system.switch_cpus_1.iew.lsq.thread0.blockedLoads            0                       # Number of blocked loads due to partial load-store forwarding
system.switch_cpus_1.iew.lsq.thread0.cacheBlocked         1537                       # Number of times an access to memory failed due to the cache being blocked
system.switch_cpus_1.iew.lsq.thread0.forwLoads     15353514                       # Number of loads that had data forwarded from stores
system.switch_cpus_1.iew.lsq.thread0.ignoredResponses       974125                       # Number of memory responses ignored because the instruction is squashed
system.switch_cpus_1.iew.lsq.thread0.invAddrLoads            0                       # Number of loads ignored due to an invalid address
system.switch_cpus_1.iew.lsq.thread0.invAddrSwpfs            0                       # Number of software prefetches ignored due to an invalid address
system.switch_cpus_1.iew.lsq.thread0.memOrderViolation       206620                       # Number of memory ordering violations
system.switch_cpus_1.iew.lsq.thread0.rescheduledLoads        60511                       # Number of loads that were rescheduled
system.switch_cpus_1.iew.lsq.thread0.squashedLoads    280826962                       # Number of loads squashed
system.switch_cpus_1.iew.lsq.thread0.squashedStores    120569344                       # Number of stores squashed
system.switch_cpus_1.iew.memOrderViolationEvents       206620                       # Number of memory order violations
system.switch_cpus_1.iew.predictedNotTakenIncorrect    110179882                       # Number of branches that were predicted not taken incorrectly
system.switch_cpus_1.iew.predictedTakenIncorrect      4866691                       # Number of branches that were predicted taken incorrectly
system.switch_cpus_1.iew.wb_consumers      3344656960                       # num instructions consuming a value
system.switch_cpus_1.iew.wb_count          3140863734                       # cumulative count of insts written-back
system.switch_cpus_1.iew.wb_fanout           0.708129                       # average fanout of values written-back
system.switch_cpus_1.iew.wb_producers      2368449309                       # num instructions producing a value
system.switch_cpus_1.iew.wb_rate             2.150069                       # insts written-back per cycle
system.switch_cpus_1.iew.wb_sent           3169866543                       # cumulative count of insts sent to commit
system.switch_cpus_1.int_regfile_reads     3734196296                       # number of integer regfile reads
system.switch_cpus_1.int_regfile_writes    2663603602                       # number of integer regfile writes
system.switch_cpus_1.ipc                     0.684547                       # IPC: Instructions Per Cycle
system.switch_cpus_1.ipc_total               0.684547                       # IPC: Total IPC of All Threads
system.switch_cpus_1.iq.FU_type_0::No_OpClass     50908416      1.49%      1.49% # Type of FU issued
system.switch_cpus_1.iq.FU_type_0::IntAlu   2783404618     81.30%     82.79% # Type of FU issued
system.switch_cpus_1.iq.FU_type_0::IntMult       638055      0.02%     82.80% # Type of FU issued
system.switch_cpus_1.iq.FU_type_0::IntDiv      5007894      0.15%     82.95% # Type of FU issued
system.switch_cpus_1.iq.FU_type_0::FloatAdd          252      0.00%     82.95% # Type of FU issued
system.switch_cpus_1.iq.FU_type_0::FloatCmp            0      0.00%     82.95% # Type of FU issued
system.switch_cpus_1.iq.FU_type_0::FloatCvt            0      0.00%     82.95% # Type of FU issued
system.switch_cpus_1.iq.FU_type_0::FloatMult            0      0.00%     82.95% # Type of FU issued
system.switch_cpus_1.iq.FU_type_0::FloatMultAcc            0      0.00%     82.95% # Type of FU issued
system.switch_cpus_1.iq.FU_type_0::FloatDiv            0      0.00%     82.95% # Type of FU issued
system.switch_cpus_1.iq.FU_type_0::FloatMisc            0      0.00%     82.95% # Type of FU issued
system.switch_cpus_1.iq.FU_type_0::FloatSqrt            0      0.00%     82.95% # Type of FU issued
system.switch_cpus_1.iq.FU_type_0::SimdAdd            0      0.00%     82.95% # Type of FU issued
system.switch_cpus_1.iq.FU_type_0::SimdAddAcc            0      0.00%     82.95% # Type of FU issued
system.switch_cpus_1.iq.FU_type_0::SimdAlu          609      0.00%     82.95% # Type of FU issued
system.switch_cpus_1.iq.FU_type_0::SimdCmp            0      0.00%     82.95% # Type of FU issued
system.switch_cpus_1.iq.FU_type_0::SimdCvt         1736      0.00%     82.95% # Type of FU issued
system.switch_cpus_1.iq.FU_type_0::SimdMisc         3377      0.00%     82.95% # Type of FU issued
system.switch_cpus_1.iq.FU_type_0::SimdMult            0      0.00%     82.95% # Type of FU issued
system.switch_cpus_1.iq.FU_type_0::SimdMultAcc            0      0.00%     82.95% # Type of FU issued
system.switch_cpus_1.iq.FU_type_0::SimdShift            0      0.00%     82.95% # Type of FU issued
system.switch_cpus_1.iq.FU_type_0::SimdShiftAcc            0      0.00%     82.95% # Type of FU issued
system.switch_cpus_1.iq.FU_type_0::SimdDiv            0      0.00%     82.95% # Type of FU issued
system.switch_cpus_1.iq.FU_type_0::SimdSqrt            0      0.00%     82.95% # Type of FU issued
system.switch_cpus_1.iq.FU_type_0::SimdFloatAdd            0      0.00%     82.95% # Type of FU issued
system.switch_cpus_1.iq.FU_type_0::SimdFloatAlu            0      0.00%     82.95% # Type of FU issued
system.switch_cpus_1.iq.FU_type_0::SimdFloatCmp            0      0.00%     82.95% # Type of FU issued
system.switch_cpus_1.iq.FU_type_0::SimdFloatCvt           23      0.00%     82.95% # Type of FU issued
system.switch_cpus_1.iq.FU_type_0::SimdFloatDiv            1      0.00%     82.95% # Type of FU issued
system.switch_cpus_1.iq.FU_type_0::SimdFloatMisc            0      0.00%     82.95% # Type of FU issued
system.switch_cpus_1.iq.FU_type_0::SimdFloatMult            1      0.00%     82.95% # Type of FU issued
system.switch_cpus_1.iq.FU_type_0::SimdFloatMultAcc            0      0.00%     82.95% # Type of FU issued
system.switch_cpus_1.iq.FU_type_0::SimdFloatSqrt            0      0.00%     82.95% # Type of FU issued
system.switch_cpus_1.iq.FU_type_0::SimdReduceAdd            0      0.00%     82.95% # Type of FU issued
system.switch_cpus_1.iq.FU_type_0::SimdReduceAlu            0      0.00%     82.95% # Type of FU issued
system.switch_cpus_1.iq.FU_type_0::SimdReduceCmp            0      0.00%     82.95% # Type of FU issued
system.switch_cpus_1.iq.FU_type_0::SimdFloatReduceAdd            0      0.00%     82.95% # Type of FU issued
system.switch_cpus_1.iq.FU_type_0::SimdFloatReduceCmp            0      0.00%     82.95% # Type of FU issued
system.switch_cpus_1.iq.FU_type_0::SimdAes            0      0.00%     82.95% # Type of FU issued
system.switch_cpus_1.iq.FU_type_0::SimdAesMix            0      0.00%     82.95% # Type of FU issued
system.switch_cpus_1.iq.FU_type_0::SimdSha1Hash            0      0.00%     82.95% # Type of FU issued
system.switch_cpus_1.iq.FU_type_0::SimdSha1Hash2            0      0.00%     82.95% # Type of FU issued
system.switch_cpus_1.iq.FU_type_0::SimdSha256Hash            0      0.00%     82.95% # Type of FU issued
system.switch_cpus_1.iq.FU_type_0::SimdSha256Hash2            0      0.00%     82.95% # Type of FU issued
system.switch_cpus_1.iq.FU_type_0::SimdShaSigma2            0      0.00%     82.95% # Type of FU issued
system.switch_cpus_1.iq.FU_type_0::SimdShaSigma3            0      0.00%     82.95% # Type of FU issued
system.switch_cpus_1.iq.FU_type_0::SimdPredAlu            0      0.00%     82.95% # Type of FU issued
system.switch_cpus_1.iq.FU_type_0::MemRead    431848774     12.61%     95.56% # Type of FU issued
system.switch_cpus_1.iq.FU_type_0::MemWrite    151864614      4.44%    100.00% # Type of FU issued
system.switch_cpus_1.iq.FU_type_0::FloatMemRead         1546      0.00%    100.00% # Type of FU issued
system.switch_cpus_1.iq.FU_type_0::FloatMemWrite          676      0.00%    100.00% # Type of FU issued
system.switch_cpus_1.iq.FU_type_0::IprAccess            0      0.00%    100.00% # Type of FU issued
system.switch_cpus_1.iq.FU_type_0::InstPrefetch            0      0.00%    100.00% # Type of FU issued
system.switch_cpus_1.iq.FU_type_0::total   3423680592                       # Type of FU issued
system.switch_cpus_1.iq.fp_alu_accesses          9489                       # Number of floating point alu accesses
system.switch_cpus_1.iq.fp_inst_queue_reads        18884                       # Number of floating instruction queue reads
system.switch_cpus_1.iq.fp_inst_queue_wakeup_accesses         8637                       # Number of floating instruction queue wakeup accesses
system.switch_cpus_1.iq.fp_inst_queue_writes        14123                       # Number of floating instruction queue writes
system.switch_cpus_1.iq.fu_busy_cnt         113439604                       # FU busy when requested
system.switch_cpus_1.iq.fu_busy_rate         0.033134                       # FU busy rate (busy events/executed inst)
system.switch_cpus_1.iq.fu_full::No_OpClass            0      0.00%      0.00% # attempts to use FU when none available
system.switch_cpus_1.iq.fu_full::IntAlu     104147686     91.81%     91.81% # attempts to use FU when none available
system.switch_cpus_1.iq.fu_full::IntMult            0      0.00%     91.81% # attempts to use FU when none available
system.switch_cpus_1.iq.fu_full::IntDiv             0      0.00%     91.81% # attempts to use FU when none available
system.switch_cpus_1.iq.fu_full::FloatAdd            0      0.00%     91.81% # attempts to use FU when none available
system.switch_cpus_1.iq.fu_full::FloatCmp            0      0.00%     91.81% # attempts to use FU when none available
system.switch_cpus_1.iq.fu_full::FloatCvt            0      0.00%     91.81% # attempts to use FU when none available
system.switch_cpus_1.iq.fu_full::FloatMult            0      0.00%     91.81% # attempts to use FU when none available
system.switch_cpus_1.iq.fu_full::FloatMultAcc            0      0.00%     91.81% # attempts to use FU when none available
system.switch_cpus_1.iq.fu_full::FloatDiv            0      0.00%     91.81% # attempts to use FU when none available
system.switch_cpus_1.iq.fu_full::FloatMisc            0      0.00%     91.81% # attempts to use FU when none available
system.switch_cpus_1.iq.fu_full::FloatSqrt            0      0.00%     91.81% # attempts to use FU when none available
system.switch_cpus_1.iq.fu_full::SimdAdd            0      0.00%     91.81% # attempts to use FU when none available
system.switch_cpus_1.iq.fu_full::SimdAddAcc            0      0.00%     91.81% # attempts to use FU when none available
system.switch_cpus_1.iq.fu_full::SimdAlu           15      0.00%     91.81% # attempts to use FU when none available
system.switch_cpus_1.iq.fu_full::SimdCmp            0      0.00%     91.81% # attempts to use FU when none available
system.switch_cpus_1.iq.fu_full::SimdCvt            0      0.00%     91.81% # attempts to use FU when none available
system.switch_cpus_1.iq.fu_full::SimdMisc            0      0.00%     91.81% # attempts to use FU when none available
system.switch_cpus_1.iq.fu_full::SimdMult            0      0.00%     91.81% # attempts to use FU when none available
system.switch_cpus_1.iq.fu_full::SimdMultAcc            0      0.00%     91.81% # attempts to use FU when none available
system.switch_cpus_1.iq.fu_full::SimdShift            0      0.00%     91.81% # attempts to use FU when none available
system.switch_cpus_1.iq.fu_full::SimdShiftAcc            0      0.00%     91.81% # attempts to use FU when none available
system.switch_cpus_1.iq.fu_full::SimdDiv            0      0.00%     91.81% # attempts to use FU when none available
system.switch_cpus_1.iq.fu_full::SimdSqrt            0      0.00%     91.81% # attempts to use FU when none available
system.switch_cpus_1.iq.fu_full::SimdFloatAdd            0      0.00%     91.81% # attempts to use FU when none available
system.switch_cpus_1.iq.fu_full::SimdFloatAlu            0      0.00%     91.81% # attempts to use FU when none available
system.switch_cpus_1.iq.fu_full::SimdFloatCmp            0      0.00%     91.81% # attempts to use FU when none available
system.switch_cpus_1.iq.fu_full::SimdFloatCvt            0      0.00%     91.81% # attempts to use FU when none available
system.switch_cpus_1.iq.fu_full::SimdFloatDiv            0      0.00%     91.81% # attempts to use FU when none available
system.switch_cpus_1.iq.fu_full::SimdFloatMisc            0      0.00%     91.81% # attempts to use FU when none available
system.switch_cpus_1.iq.fu_full::SimdFloatMult            0      0.00%     91.81% # attempts to use FU when none available
system.switch_cpus_1.iq.fu_full::SimdFloatMultAcc            0      0.00%     91.81% # attempts to use FU when none available
system.switch_cpus_1.iq.fu_full::SimdFloatSqrt            0      0.00%     91.81% # attempts to use FU when none available
system.switch_cpus_1.iq.fu_full::SimdReduceAdd            0      0.00%     91.81% # attempts to use FU when none available
system.switch_cpus_1.iq.fu_full::SimdReduceAlu            0      0.00%     91.81% # attempts to use FU when none available
system.switch_cpus_1.iq.fu_full::SimdReduceCmp            0      0.00%     91.81% # attempts to use FU when none available
system.switch_cpus_1.iq.fu_full::SimdFloatReduceAdd            0      0.00%     91.81% # attempts to use FU when none available
system.switch_cpus_1.iq.fu_full::SimdFloatReduceCmp            0      0.00%     91.81% # attempts to use FU when none available
system.switch_cpus_1.iq.fu_full::SimdAes            0      0.00%     91.81% # attempts to use FU when none available
system.switch_cpus_1.iq.fu_full::SimdAesMix            0      0.00%     91.81% # attempts to use FU when none available
system.switch_cpus_1.iq.fu_full::SimdSha1Hash            0      0.00%     91.81% # attempts to use FU when none available
system.switch_cpus_1.iq.fu_full::SimdSha1Hash2            0      0.00%     91.81% # attempts to use FU when none available
system.switch_cpus_1.iq.fu_full::SimdSha256Hash            0      0.00%     91.81% # attempts to use FU when none available
system.switch_cpus_1.iq.fu_full::SimdSha256Hash2            0      0.00%     91.81% # attempts to use FU when none available
system.switch_cpus_1.iq.fu_full::SimdShaSigma2            0      0.00%     91.81% # attempts to use FU when none available
system.switch_cpus_1.iq.fu_full::SimdShaSigma3            0      0.00%     91.81% # attempts to use FU when none available
system.switch_cpus_1.iq.fu_full::SimdPredAlu            0      0.00%     91.81% # attempts to use FU when none available
system.switch_cpus_1.iq.fu_full::MemRead      7219662      6.36%     98.17% # attempts to use FU when none available
system.switch_cpus_1.iq.fu_full::MemWrite      2072076      1.83%    100.00% # attempts to use FU when none available
system.switch_cpus_1.iq.fu_full::FloatMemRead            0      0.00%    100.00% # attempts to use FU when none available
system.switch_cpus_1.iq.fu_full::FloatMemWrite          165      0.00%    100.00% # attempts to use FU when none available
system.switch_cpus_1.iq.fu_full::IprAccess            0      0.00%    100.00% # attempts to use FU when none available
system.switch_cpus_1.iq.fu_full::InstPrefetch            0      0.00%    100.00% # attempts to use FU when none available
system.switch_cpus_1.iq.int_alu_accesses   3486202291                       # Number of integer alu accesses
system.switch_cpus_1.iq.int_inst_queue_reads   8476901457                       # Number of integer instruction queue reads
system.switch_cpus_1.iq.int_inst_queue_wakeup_accesses   3140855097                       # Number of integer instruction queue wakeup accesses
system.switch_cpus_1.iq.int_inst_queue_writes   6429317211                       # Number of integer instruction queue writes
system.switch_cpus_1.iq.iqInstsAdded       4160724946                       # Number of instructions added to the IQ (excludes non-spec)
system.switch_cpus_1.iq.iqInstsIssued      3423680592                       # Number of instructions issued
system.switch_cpus_1.iq.iqNonSpecInstsAdded          188                       # Number of non-speculative instructions added to the IQ
system.switch_cpus_1.iq.iqSquashedInstsExamined   2268426063                       # Number of squashed instructions iterated over during squash; mainly for profiling
system.switch_cpus_1.iq.iqSquashedInstsIssued     56767922                       # Number of squashed instructions issued
system.switch_cpus_1.iq.iqSquashedNonSpecRemoved          140                       # Number of squashed non-spec instructions that were removed
system.switch_cpus_1.iq.iqSquashedOperandsExamined   2997479295                       # Number of squashed operands that are examined and possibly removed from graph
system.switch_cpus_1.iq.issued_per_cycle::samples   1459351632                       # Number of insts issued each cycle
system.switch_cpus_1.iq.issued_per_cycle::mean     2.346029                       # Number of insts issued each cycle
system.switch_cpus_1.iq.issued_per_cycle::stdev     2.720419                       # Number of insts issued each cycle
system.switch_cpus_1.iq.issued_per_cycle::underflows            0      0.00%      0.00% # Number of insts issued each cycle
system.switch_cpus_1.iq.issued_per_cycle::0    699295481     47.92%     47.92% # Number of insts issued each cycle
system.switch_cpus_1.iq.issued_per_cycle::1     91622799      6.28%     54.20% # Number of insts issued each cycle
system.switch_cpus_1.iq.issued_per_cycle::2     83192981      5.70%     59.90% # Number of insts issued each cycle
system.switch_cpus_1.iq.issued_per_cycle::3     75150605      5.15%     65.05% # Number of insts issued each cycle
system.switch_cpus_1.iq.issued_per_cycle::4     99200201      6.80%     71.84% # Number of insts issued each cycle
system.switch_cpus_1.iq.issued_per_cycle::5    115964349      7.95%     79.79% # Number of insts issued each cycle
system.switch_cpus_1.iq.issued_per_cycle::6    153515785     10.52%     90.31% # Number of insts issued each cycle
system.switch_cpus_1.iq.issued_per_cycle::7     88772691      6.08%     96.39% # Number of insts issued each cycle
system.switch_cpus_1.iq.issued_per_cycle::8     52636740      3.61%    100.00% # Number of insts issued each cycle
system.switch_cpus_1.iq.issued_per_cycle::overflows            0      0.00%    100.00% # Number of insts issued each cycle
system.switch_cpus_1.iq.issued_per_cycle::min_value            0                       # Number of insts issued each cycle
system.switch_cpus_1.iq.issued_per_cycle::max_value            8                       # Number of insts issued each cycle
system.switch_cpus_1.iq.issued_per_cycle::total   1459351632                       # Number of insts issued each cycle
system.switch_cpus_1.iq.rate                 2.343671                       # Inst issue rate
system.switch_cpus_1.iq.vec_alu_accesses            0                       # Number of vector alu accesses
system.switch_cpus_1.iq.vec_inst_queue_reads            0                       # Number of vector instruction queue reads
system.switch_cpus_1.iq.vec_inst_queue_wakeup_accesses            0                       # Number of vector instruction queue wakeup accesses
system.switch_cpus_1.iq.vec_inst_queue_writes            0                       # Number of vector instruction queue writes
system.switch_cpus_1.itb.rdAccesses                 0                       # TLB accesses on read requests
system.switch_cpus_1.itb.rdMisses                   0                       # TLB misses on read requests
system.switch_cpus_1.itb.wrAccesses         331918628                       # TLB accesses on write requests
system.switch_cpus_1.itb.wrMisses                  75                       # TLB misses on write requests
system.switch_cpus_1.memDep0.conflictingLoads     20761894                       # Number of conflicting loads.
system.switch_cpus_1.memDep0.conflictingStores     15476759                       # Number of conflicting stores.
system.switch_cpus_1.memDep0.insertedLoads    521869900                       # Number of loads inserted to the mem dependence unit.
system.switch_cpus_1.memDep0.insertedStores    216907496                       # Number of stores inserted to the mem dependence unit.
system.switch_cpus_1.misc_regfile_reads    1398800950                       # number of misc regfile reads
system.switch_cpus_1.misc_regfile_writes           72                       # number of misc regfile writes
system.switch_cpus_1.numCycles             1460819856                       # number of cpu cycles simulated
system.switch_cpus_1.numWorkItemsCompleted            0                       # number of work items this cpu completed
system.switch_cpus_1.numWorkItemsStarted            0                       # number of work items this cpu started
system.switch_cpus_1.rename.BlockCycles     327938130                       # Number of cycles rename is blocking
system.switch_cpus_1.rename.CommittedMaps   2277656977                       # Number of HB maps that are committed
system.switch_cpus_1.rename.IQFullEvents      1561184                       # Number of times rename has blocked due to IQ full
system.switch_cpus_1.rename.IdleCycles      358817329                       # Number of cycles rename is idle
system.switch_cpus_1.rename.LQFullEvents      1080766                       # Number of times rename has blocked due to LQ full
system.switch_cpus_1.rename.ROBFullEvents      2610482                       # Number of times rename has blocked due to ROB full
system.switch_cpus_1.rename.RenameLookups  11470019986                       # Number of register rename lookups that rename has made
system.switch_cpus_1.rename.RenamedInsts   4994835982                       # Number of instructions processed by rename
system.switch_cpus_1.rename.RenamedOperands   5798220566                       # Number of destination operands rename has renamed
system.switch_cpus_1.rename.RunCycles       678973536                       # Number of cycles rename is running
system.switch_cpus_1.rename.SQFullEvents       687579                       # Number of times rename has blocked due to SQ full
system.switch_cpus_1.rename.SquashCycles     82048194                       # Number of cycles rename is squashing
system.switch_cpus_1.rename.UnblockCycles     11573539                       # Number of cycles rename is unblocking
system.switch_cpus_1.rename.UndoneMaps     3520563531                       # Number of HB maps that are undone due to squashing
system.switch_cpus_1.rename.fp_rename_lookups        15244                       # Number of floating rename lookups
system.switch_cpus_1.rename.int_rename_lookups   6492184925                       # Number of integer rename lookups
system.switch_cpus_1.rename.serializeStallCycles          897                       # count of cycles rename stalled for serializing inst
system.switch_cpus_1.rename.serializingInsts           48                       # count of serializing insts renamed
system.switch_cpus_1.rename.skidInsts        58141591                       # count of insts added to the skid buffer
system.switch_cpus_1.rename.tempSerializingInsts           48                       # count of temporary serializing insts renamed
system.switch_cpus_1.rob.rob_reads         5139932850                       # The number of ROB reads
system.switch_cpus_1.rob.rob_writes        8692185133                       # The number of ROB writes
system.switch_cpus_1.timesIdled                201299                       # Number of times that the entire CPU went into an idle state and unscheduled itself
system.tol2bus.snoop_filter.hit_multi_requests            2                       # Number of requests hitting in the snoop filter with multiple (>1) holders of the requested data.
system.tol2bus.snoop_filter.hit_multi_snoops            0                       # Number of snoops hitting in the snoop filter with multiple (>1) holders of the requested data.
system.tol2bus.snoop_filter.hit_single_requests      3405072                       # Number of requests hitting in the snoop filter with a single holder of the requested data.
system.tol2bus.snoop_filter.hit_single_snoops         5958                       # Number of snoops hitting in the snoop filter with a single holder of the requested data.
system.tol2bus.snoop_filter.tot_requests      6402411                       # Total number of requests made to the snoop filter.
system.tol2bus.snoop_filter.tot_snoops           5958                       # Total number of snoops made to the snoop filter.
system.tol3bus.snoop_filter.hit_multi_requests            0                       # Number of requests hitting in the snoop filter with multiple (>1) holders of the requested data.
system.tol3bus.snoop_filter.hit_multi_snoops            0                       # Number of snoops hitting in the snoop filter with multiple (>1) holders of the requested data.
system.tol3bus.snoop_filter.hit_single_requests      1226278                       # Number of requests hitting in the snoop filter with a single holder of the requested data.
system.tol3bus.snoop_filter.hit_single_snoops        25027                       # Number of snoops hitting in the snoop filter with a single holder of the requested data.
system.tol3bus.snoop_filter.tot_requests      2198597                       # Total number of requests made to the snoop filter.
system.tol3bus.snoop_filter.tot_snoops          25027                       # Total number of snoops made to the snoop filter.
system.membus.trans_dist::ReadResp             341123                       # Transaction distribution
system.membus.trans_dist::WritebackDirty       270852                       # Transaction distribution
system.membus.trans_dist::CleanEvict            88557                       # Transaction distribution
system.membus.trans_dist::UpgradeReq              587                       # Transaction distribution
system.membus.trans_dist::ReadExReq             18292                       # Transaction distribution
system.membus.trans_dist::ReadExResp            18292                       # Transaction distribution
system.membus.trans_dist::ReadSharedReq        341123                       # Transaction distribution
system.membus.pkt_count_system.l3.mem_side::system.mem_ctrls.port      1078826                       # Packet count per connected master and slave (bytes)
system.membus.pkt_count_system.l3.mem_side::total      1078826                       # Packet count per connected master and slave (bytes)
system.membus.pkt_count::total                1078826                       # Packet count per connected master and slave (bytes)
system.membus.pkt_size_system.l3.mem_side::system.mem_ctrls.port     40337088                       # Cumulative packet size per connected master and slave (bytes)
system.membus.pkt_size_system.l3.mem_side::total     40337088                       # Cumulative packet size per connected master and slave (bytes)
system.membus.pkt_size::total                40337088                       # Cumulative packet size per connected master and slave (bytes)
system.membus.snoops                                0                       # Total snoops (count)
system.membus.snoopTraffic                          0                       # Total snoop traffic (bytes)
system.membus.snoop_fanout::samples            360002                       # Request fanout histogram
system.membus.snoop_fanout::mean                    0                       # Request fanout histogram
system.membus.snoop_fanout::stdev                   0                       # Request fanout histogram
system.membus.snoop_fanout::underflows              0      0.00%      0.00% # Request fanout histogram
system.membus.snoop_fanout::0                  360002    100.00%    100.00% # Request fanout histogram
system.membus.snoop_fanout::1                       0      0.00%    100.00% # Request fanout histogram
system.membus.snoop_fanout::overflows               0      0.00%    100.00% # Request fanout histogram
system.membus.snoop_fanout::min_value               0                       # Request fanout histogram
system.membus.snoop_fanout::max_value               0                       # Request fanout histogram
system.membus.snoop_fanout::total              360002                       # Request fanout histogram
system.membus.reqLayer2.occupancy          1886149500                       # Layer occupancy (ticks)
system.membus.reqLayer2.utilization               0.3                       # Layer utilization (%)
system.membus.respLayer1.occupancy         1971974750                       # Layer occupancy (ticks)
system.membus.respLayer1.utilization              0.3                       # Layer utilization (%)
system.membus.power_state.pwrStateResidencyTicks::UNDEFINED 1941383824000                       # Cumulative time (in ticks) in various power states
system.switch_cpus_1.dtb.walker.power_state.pwrStateResidencyTicks::UNDEFINED 1941383824000                       # Cumulative time (in ticks) in various power states
system.switch_cpus_1.itb.walker.power_state.pwrStateResidencyTicks::UNDEFINED 1941383824000                       # Cumulative time (in ticks) in various power states
system.switch_cpus_1.power_state.pwrStateResidencyTicks::OFF 1941383824000                       # Cumulative time (in ticks) in various power states
system.switch_cpus.dtb.walker.power_state.pwrStateResidencyTicks::UNDEFINED 1941383824000                       # Cumulative time (in ticks) in various power states
system.switch_cpus.itb.walker.power_state.pwrStateResidencyTicks::UNDEFINED 1941383824000                       # Cumulative time (in ticks) in various power states
system.switch_cpus.power_state.numTransitions            1                       # Number of power state transitions
system.switch_cpus.power_state.pwrStateResidencyTicks::OFF 1941383824000                       # Cumulative time (in ticks) in various power states
system.tol2bus.trans_dist::ReadResp           2390713                       # Transaction distribution
system.tol2bus.trans_dist::WritebackDirty      1299364                       # Transaction distribution
system.tol2bus.trans_dist::WritebackClean      1017982                       # Transaction distribution
system.tol2bus.trans_dist::CleanEvict          992293                       # Transaction distribution
system.tol2bus.trans_dist::UpgradeReq          407733                       # Transaction distribution
system.tol2bus.trans_dist::UpgradeResp         407733                       # Transaction distribution
system.tol2bus.trans_dist::ReadExReq           606626                       # Transaction distribution
system.tol2bus.trans_dist::ReadExResp          606626                       # Transaction distribution
system.tol2bus.trans_dist::ReadCleanReq       2390713                       # Transaction distribution
system.tol2bus.pkt_count_system.cpu.icache.mem_side::system.l2.cpu_side      3053946                       # Packet count per connected master and slave (bytes)
system.tol2bus.pkt_count_system.cpu.dcache.mem_side::system.l2.cpu_side      6753537                       # Packet count per connected master and slave (bytes)
system.tol2bus.pkt_count::total               9807483                       # Packet count per connected master and slave (bytes)
system.tol2bus.pkt_size_system.cpu.icache.mem_side::system.l2.cpu_side    130301696                       # Cumulative packet size per connected master and slave (bytes)
system.tol2bus.pkt_size_system.cpu.dcache.mem_side::system.l2.cpu_side    191599616                       # Cumulative packet size per connected master and slave (bytes)
system.tol2bus.pkt_size::total              321901312                       # Cumulative packet size per connected master and slave (bytes)
system.tol2bus.snoops                          312300                       # Total snoops (count)
system.tol2bus.snoopTraffic                  18238528                       # Total snoop traffic (bytes)
system.tol2bus.snoop_fanout::samples          3717372                       # Request fanout histogram
system.tol2bus.snoop_fanout::mean            0.001603                       # Request fanout histogram
system.tol2bus.snoop_fanout::stdev           0.040009                       # Request fanout histogram
system.tol2bus.snoop_fanout::underflows             0      0.00%      0.00% # Request fanout histogram
system.tol2bus.snoop_fanout::0                3711412     99.84%     99.84% # Request fanout histogram
system.tol2bus.snoop_fanout::1                   5960      0.16%    100.00% # Request fanout histogram
system.tol2bus.snoop_fanout::2                      0      0.00%    100.00% # Request fanout histogram
system.tol2bus.snoop_fanout::3                      0      0.00%    100.00% # Request fanout histogram
system.tol2bus.snoop_fanout::4                      0      0.00%    100.00% # Request fanout histogram
system.tol2bus.snoop_fanout::overflows              0      0.00%    100.00% # Request fanout histogram
system.tol2bus.snoop_fanout::min_value              0                       # Request fanout histogram
system.tol2bus.snoop_fanout::max_value              1                       # Request fanout histogram
system.tol2bus.snoop_fanout::total            3717372                       # Request fanout histogram
system.tol2bus.reqLayer0.occupancy         5233574500                       # Layer occupancy (ticks)
system.tol2bus.reqLayer0.utilization              0.7                       # Layer utilization (%)
system.tol2bus.respLayer1.occupancy        3173659981                       # Layer occupancy (ticks)
system.tol2bus.respLayer1.utilization             0.4                       # Layer utilization (%)
system.tol2bus.respLayer0.occupancy        1527025894                       # Layer occupancy (ticks)
system.tol2bus.respLayer0.utilization             0.2                       # Layer utilization (%)
system.tol2bus.power_state.pwrStateResidencyTicks::UNDEFINED 1941383824000                       # Cumulative time (in ticks) in various power states
system.voltage_domain.voltage                       1                       # Voltage in Volts
system.clk_domain.clock                          1000                       # Clock period in ticks
system.l2.demand_hits::.switch_cpus_1.inst      1015652                       # number of demand (read+write) hits
system.l2.demand_hits::.switch_cpus_1.data      1009366                       # number of demand (read+write) hits
system.l2.demand_hits::total                  2025018                       # number of demand (read+write) hits
system.l2.overall_hits::.switch_cpus_1.inst      1015652                       # number of overall hits
system.l2.overall_hits::.switch_cpus_1.data      1009366                       # number of overall hits
system.l2.overall_hits::total                 2025018                       # number of overall hits
system.l2.demand_misses::.switch_cpus_1.inst         2330                       # number of demand (read+write) misses
system.l2.demand_misses::.switch_cpus_1.data       969991                       # number of demand (read+write) misses
system.l2.demand_misses::total                 972321                       # number of demand (read+write) misses
system.l2.overall_misses::.switch_cpus_1.inst         2330                       # number of overall misses
system.l2.overall_misses::.switch_cpus_1.data       969991                       # number of overall misses
system.l2.overall_misses::total                972321                       # number of overall misses
system.l2.demand_miss_latency::.switch_cpus_1.inst    203871500                       # number of demand (read+write) miss cycles
system.l2.demand_miss_latency::.switch_cpus_1.data  55717130000                       # number of demand (read+write) miss cycles
system.l2.demand_miss_latency::total      55921001500                       # number of demand (read+write) miss cycles
system.l2.overall_miss_latency::.switch_cpus_1.inst    203871500                       # number of overall miss cycles
system.l2.overall_miss_latency::.switch_cpus_1.data  55717130000                       # number of overall miss cycles
system.l2.overall_miss_latency::total     55921001500                       # number of overall miss cycles
system.l2.demand_accesses::.switch_cpus_1.inst      1017982                       # number of demand (read+write) accesses
system.l2.demand_accesses::.switch_cpus_1.data      1979357                       # number of demand (read+write) accesses
system.l2.demand_accesses::total              2997339                       # number of demand (read+write) accesses
system.l2.overall_accesses::.switch_cpus_1.inst      1017982                       # number of overall (read+write) accesses
system.l2.overall_accesses::.switch_cpus_1.data      1979357                       # number of overall (read+write) accesses
system.l2.overall_accesses::total             2997339                       # number of overall (read+write) accesses
system.l2.demand_miss_rate::.switch_cpus_1.inst     0.002289                       # miss rate for demand accesses
[...]
system.cpu.dcache.demand_miss_latency::total  98149643492                       # number of demand (read+write) miss cycles
system.cpu.dcache.overall_miss_latency::.switch_cpus.data   3441662000                       # number of overall miss cycles
system.cpu.dcache.overall_miss_latency::.switch_cpus_1.data  94707981492                       # number of overall miss cycles
system.cpu.dcache.overall_miss_latency::total  98149643492                       # number of overall miss cycles
system.cpu.dcache.demand_accesses::.cpu.data    383069511                       # number of demand (read+write) accesses
system.cpu.dcache.demand_accesses::.switch_cpus.data     16518886                       # number of demand (read+write) accesses
system.cpu.dcache.demand_accesses::.switch_cpus_1.data    469960839                       # number of demand (read+write) accesses
system.cpu.dcache.demand_accesses::total    869549236                       # number of demand (read+write) accesses
system.cpu.dcache.overall_accesses::.cpu.data    383069511                       # number of overall (read+write) accesses
system.cpu.dcache.overall_accesses::.switch_cpus.data     16518886                       # number of overall (read+write) accesses
system.cpu.dcache.overall_accesses::.switch_cpus_1.data    469960839                       # number of overall (read+write) accesses
system.cpu.dcache.overall_accesses::total    869549236                       # number of overall (read+write) accesses
system.cpu.dcache.demand_miss_rate::.cpu.data     0.026648                       # miss rate for demand accesses
system.cpu.dcache.demand_miss_rate::.switch_cpus.data     0.005953                       # miss rate for demand accesses
system.cpu.dcache.demand_miss_rate::.switch_cpus_1.data     0.006454                       # miss rate for demand accesses
system.cpu.dcache.demand_miss_rate::total     0.015341                       # miss rate for demand accesses
system.cpu.dcache.overall_miss_rate::.cpu.data     0.026648                       # miss rate for overall accesses
system.cpu.dcache.overall_miss_rate::.switch_cpus.data     0.005953                       # miss rate for overall accesses
system.cpu.dcache.overall_miss_rate::.switch_cpus_1.data     0.006454                       # miss rate for overall accesses
system.cpu.dcache.overall_miss_rate::total     0.015341                       # miss rate for overall accesses
system.cpu.dcache.demand_avg_miss_latency::.switch_cpus.data 34997.223945                       # average overall miss latency
system.cpu.dcache.demand_avg_miss_latency::.switch_cpus_1.data 31224.926632                       # average overall miss latency
system.cpu.dcache.demand_avg_miss_latency::total  7357.845091                       # average overall miss latency
system.cpu.dcache.overall_avg_miss_latency::.switch_cpus.data 34997.223945                       # average overall miss latency
system.cpu.dcache.overall_avg_miss_latency::.switch_cpus_1.data 31224.926632                       # average overall miss latency
system.cpu.dcache.overall_avg_miss_latency::total  7357.845091                       # average overall miss latency
system.cpu.dcache.blocked_cycles::no_mshrs        44343                       # number of cycles access was blocked
system.cpu.dcache.blocked_cycles::no_targets          367                       # number of cycles access was blocked
system.cpu.dcache.blocked::no_mshrs              3341                       # number of cycles access was blocked
system.cpu.dcache.blocked::no_targets               3                       # number of cycles access was blocked
system.cpu.dcache.avg_blocked_cycles::no_mshrs    13.272374                       # average number of cycles each access was blocked
system.cpu.dcache.avg_blocked_cycles::no_targets   122.333333                       # average number of cycles each access was blocked
system.cpu.dcache.writebacks::.writebacks     10249989                       # number of writebacks
system.cpu.dcache.writebacks::total          10249989                       # number of writebacks
system.cpu.dcache.demand_mshr_hits::.switch_cpus_1.data       656922                       # number of demand (read+write) MSHR hits
system.cpu.dcache.demand_mshr_hits::total       656922                       # number of demand (read+write) MSHR hits
system.cpu.dcache.overall_mshr_hits::.switch_cpus_1.data       656922                       # number of overall MSHR hits
system.cpu.dcache.overall_mshr_hits::total       656922                       # number of overall MSHR hits
system.cpu.dcache.demand_mshr_misses::.switch_cpus.data        98341                       # number of demand (read+write) MSHR misses
system.cpu.dcache.demand_mshr_misses::.switch_cpus_1.data      2376167                       # number of demand (read+write) MSHR misses
system.cpu.dcache.demand_mshr_misses::total      2474508                       # number of demand (read+write) MSHR misses
system.cpu.dcache.overall_mshr_misses::.switch_cpus.data        98341                       # number of overall MSHR misses
system.cpu.dcache.overall_mshr_misses::.switch_cpus_1.data      2376167                       # number of overall MSHR misses
system.cpu.dcache.overall_mshr_misses::total      2474508                       # number of overall MSHR misses
system.cpu.dcache.demand_mshr_miss_latency::.switch_cpus.data   3343321000                       # number of demand (read+write) MSHR miss cycles
system.cpu.dcache.demand_mshr_miss_latency::.switch_cpus_1.data  77614454492                       # number of demand (read+write) MSHR miss cycles
system.cpu.dcache.demand_mshr_miss_latency::total  80957775492                       # number of demand (read+write) MSHR miss cycles
system.cpu.dcache.overall_mshr_miss_latency::.switch_cpus.data   3343321000                       # number of overall MSHR miss cycles
system.cpu.dcache.overall_mshr_miss_latency::.switch_cpus_1.data  77614454492                       # number of overall MSHR miss cycles
system.cpu.dcache.overall_mshr_miss_latency::total  80957775492                       # number of overall MSHR miss cycles
system.cpu.dcache.demand_mshr_miss_rate::.switch_cpus.data     0.005953                       # mshr miss rate for demand accesses
system.cpu.dcache.demand_mshr_miss_rate::.switch_cpus_1.data     0.005056                       # mshr miss rate for demand accesses
system.cpu.dcache.demand_mshr_miss_rate::total     0.002846                       # mshr miss rate for demand accesses
system.cpu.dcache.overall_mshr_miss_rate::.switch_cpus.data     0.005953                       # mshr miss rate for overall accesses
system.cpu.dcache.overall_mshr_miss_rate::.switch_cpus_1.data     0.005056                       # mshr miss rate for overall accesses
system.cpu.dcache.overall_mshr_miss_rate::total     0.002846                       # mshr miss rate for overall accesses
system.cpu.dcache.demand_avg_mshr_miss_latency::.switch_cpus.data 33997.223945                       # average overall mshr miss latency
system.cpu.dcache.demand_avg_mshr_miss_latency::.switch_cpus_1.data 32663.720392                       # average overall mshr miss latency
system.cpu.dcache.demand_avg_mshr_miss_latency::total 32716.716007                       # average overall mshr miss latency
system.cpu.dcache.overall_avg_mshr_miss_latency::.switch_cpus.data 33997.223945                       # average overall mshr miss latency
system.cpu.dcache.overall_avg_mshr_miss_latency::.switch_cpus_1.data 32663.720392                       # average overall mshr miss latency
system.cpu.dcache.overall_avg_mshr_miss_latency::total 32716.716007                       # average overall mshr miss latency
system.cpu.dcache.replacements               11948749                       # number of replacements
system.cpu.dcache.ReadReq_hits::.cpu.data    226282120                       # number of ReadReq hits
system.cpu.dcache.ReadReq_hits::.switch_cpus.data     11961114                       # number of ReadReq hits
system.cpu.dcache.ReadReq_hits::.switch_cpus_1.data    371603958                       # number of ReadReq hits
system.cpu.dcache.ReadReq_hits::total       609847192                       # number of ReadReq hits
system.cpu.dcache.ReadReq_misses::.cpu.data      1018770                       # number of ReadReq misses
system.cpu.dcache.ReadReq_misses::.switch_cpus.data        51731                       # number of ReadReq misses
system.cpu.dcache.ReadReq_misses::.switch_cpus_1.data      2018730                       # number of ReadReq misses
system.cpu.dcache.ReadReq_misses::total       3089231                       # number of ReadReq misses
system.cpu.dcache.ReadReq_miss_latency::.switch_cpus.data   2547772000                       # number of ReadReq miss cycles
system.cpu.dcache.ReadReq_miss_latency::.switch_cpus_1.data  76271352000                       # number of ReadReq miss cycles
system.cpu.dcache.ReadReq_miss_latency::total  78819124000                       # number of ReadReq miss cycles
system.cpu.dcache.ReadReq_accesses::.cpu.data    227300890                       # number of ReadReq accesses(hits+misses)
system.cpu.dcache.ReadReq_accesses::.switch_cpus.data     12012845                       # number of ReadReq accesses(hits+misses)
system.cpu.dcache.ReadReq_accesses::.switch_cpus_1.data    373622688                       # number of ReadReq accesses(hits+misses)
system.cpu.dcache.ReadReq_accesses::total    612936423                       # number of ReadReq accesses(hits+misses)
system.cpu.dcache.ReadReq_miss_rate::.cpu.data     0.004482                       # miss rate for ReadReq accesses
system.cpu.dcache.ReadReq_miss_rate::.switch_cpus.data     0.004306                       # miss rate for ReadReq accesses
system.cpu.dcache.ReadReq_miss_rate::.switch_cpus_1.data     0.005403                       # miss rate for ReadReq accesses
system.cpu.dcache.ReadReq_miss_rate::total     0.005040                       # miss rate for ReadReq accesses
system.cpu.dcache.ReadReq_avg_miss_latency::.switch_cpus.data 49250.391448                       # average ReadReq miss latency
system.cpu.dcache.ReadReq_avg_miss_latency::.switch_cpus_1.data 37781.848984                       # average ReadReq miss latency
system.cpu.dcache.ReadReq_avg_miss_latency::total 25514.156759                       # average ReadReq miss latency
system.cpu.dcache.ReadReq_mshr_hits::.switch_cpus_1.data       645347                       # number of ReadReq MSHR hits
system.cpu.dcache.ReadReq_mshr_hits::total       645347                       # number of ReadReq MSHR hits
system.cpu.dcache.ReadReq_mshr_misses::.switch_cpus.data        51731                       # number of ReadReq MSHR misses
system.cpu.dcache.ReadReq_mshr_misses::.switch_cpus_1.data      1373383                       # number of ReadReq MSHR misses
system.cpu.dcache.ReadReq_mshr_misses::total      1425114                       # number of ReadReq MSHR misses
system.cpu.dcache.ReadReq_mshr_miss_latency::.switch_cpus.data   2496041000                       # number of ReadReq MSHR miss cycles
system.cpu.dcache.ReadReq_mshr_miss_latency::.switch_cpus_1.data  60200753000                       # number of ReadReq MSHR miss cycles
system.cpu.dcache.ReadReq_mshr_miss_latency::total  62696794000                       # number of ReadReq MSHR miss cycles
system.cpu.dcache.ReadReq_mshr_miss_rate::.switch_cpus.data     0.004306                       # mshr miss rate for ReadReq accesses
system.cpu.dcache.ReadReq_mshr_miss_rate::.switch_cpus_1.data     0.003676                       # mshr miss rate for ReadReq accesses
system.cpu.dcache.ReadReq_mshr_miss_rate::total     0.002325                       # mshr miss rate for ReadReq accesses
system.cpu.dcache.ReadReq_avg_mshr_miss_latency::.switch_cpus.data 48250.391448                       # average ReadReq mshr miss latency
system.cpu.dcache.ReadReq_avg_mshr_miss_latency::.switch_cpus_1.data 43833.914502                       # average ReadReq mshr miss latency
system.cpu.dcache.ReadReq_avg_mshr_miss_latency::total 43994.230637                       # average ReadReq mshr miss latency
system.cpu.dcache.WriteReq_hits::.cpu.data    146579366                       # number of WriteReq hits
system.cpu.dcache.WriteReq_hits::.switch_cpus.data      4459431                       # number of WriteReq hits
system.cpu.dcache.WriteReq_hits::.switch_cpus_1.data     95323792                       # number of WriteReq hits
system.cpu.dcache.WriteReq_hits::total      246362589                       # number of WriteReq hits
system.cpu.dcache.WriteReq_misses::.cpu.data      9189255                       # number of WriteReq misses
system.cpu.dcache.WriteReq_misses::.switch_cpus.data        46610                       # number of WriteReq misses
system.cpu.dcache.WriteReq_misses::.switch_cpus_1.data      1014359                       # number of WriteReq misses
system.cpu.dcache.WriteReq_misses::total     10250224                       # number of WriteReq misses
system.cpu.dcache.WriteReq_miss_latency::.switch_cpus.data    893890000                       # number of WriteReq miss cycles
system.cpu.dcache.WriteReq_miss_latency::.switch_cpus_1.data  18436629492                       # number of WriteReq miss cycles
system.cpu.dcache.WriteReq_miss_latency::total  19330519492                       # number of WriteReq miss cycles
system.cpu.dcache.WriteReq_accesses::.cpu.data    155768621                       # number of WriteReq accesses(hits+misses)
system.cpu.dcache.WriteReq_accesses::.switch_cpus.data      4506041                       # number of WriteReq accesses(hits+misses)
system.cpu.dcache.WriteReq_accesses::.switch_cpus_1.data     96338151                       # number of WriteReq accesses(hits+misses)
system.cpu.dcache.WriteReq_accesses::total    256612813                       # number of WriteReq accesses(hits+misses)
system.cpu.dcache.WriteReq_miss_rate::.cpu.data     0.058993                       # miss rate for WriteReq accesses
system.cpu.dcache.WriteReq_miss_rate::.switch_cpus.data     0.010344                       # miss rate for WriteReq accesses
system.cpu.dcache.WriteReq_miss_rate::.switch_cpus_1.data     0.010529                       # miss rate for WriteReq accesses
system.cpu.dcache.WriteReq_miss_rate::total     0.039944                       # miss rate for WriteReq accesses
system.cpu.dcache.WriteReq_avg_miss_latency::.switch_cpus.data 19178.073375                       # average WriteReq miss latency
system.cpu.dcache.WriteReq_avg_miss_latency::.switch_cpus_1.data 18175.645400                       # average WriteReq miss latency
system.cpu.dcache.WriteReq_avg_miss_latency::total  1885.863128                       # average WriteReq miss latency
system.cpu.dcache.WriteReq_mshr_hits::.switch_cpus_1.data        11575                       # number of WriteReq MSHR hits
system.cpu.dcache.WriteReq_mshr_hits::total        11575                       # number of WriteReq MSHR hits
system.cpu.dcache.WriteReq_mshr_misses::.switch_cpus.data        46610                       # number of WriteReq MSHR misses
system.cpu.dcache.WriteReq_mshr_misses::.switch_cpus_1.data      1002784                       # number of WriteReq MSHR misses
system.cpu.dcache.WriteReq_mshr_misses::total      1049394                       # number of WriteReq MSHR misses
system.cpu.dcache.WriteReq_mshr_miss_latency::.switch_cpus.data    847280000                       # number of WriteReq MSHR miss cycles
system.cpu.dcache.WriteReq_mshr_miss_latency::.switch_cpus_1.data  17413701492                       # number of WriteReq MSHR miss cycles
system.cpu.dcache.WriteReq_mshr_miss_latency::total  18260981492                       # number of WriteReq MSHR miss cycles
system.cpu.dcache.WriteReq_mshr_miss_rate::.switch_cpus.data     0.010344                       # mshr miss rate for WriteReq accesses
system.cpu.dcache.WriteReq_mshr_miss_rate::.switch_cpus_1.data     0.010409                       # mshr miss rate for WriteReq accesses
system.cpu.dcache.WriteReq_mshr_miss_rate::total     0.004089                       # mshr miss rate for WriteReq accesses
system.cpu.dcache.WriteReq_avg_mshr_miss_latency::.switch_cpus.data 18178.073375                       # average WriteReq mshr miss latency
system.cpu.dcache.WriteReq_avg_mshr_miss_latency::.switch_cpus_1.data 17365.356340                       # average WriteReq mshr miss latency
system.cpu.dcache.WriteReq_avg_mshr_miss_latency::total 17401.454070                       # average WriteReq mshr miss latency
system.cpu.dcache.power_state.pwrStateResidencyTicks::UNDEFINED 1941383824000                       # Cumulative time (in ticks) in various power states
system.cpu.dcache.tags.tagsinuse           511.996974                       # Cycle average of tags in use
system.cpu.dcache.tags.total_refs           868901785                       # Total number of references to valid blocks.
system.cpu.dcache.tags.sampled_refs          11949261                       # Sample count of references to valid blocks.
system.cpu.dcache.tags.avg_refs             72.715943                       # Average number of references to valid blocks.
system.cpu.dcache.tags.warmup_cycle              1500                       # Cycle when the warmup percentage was hit.
system.cpu.dcache.tags.occ_blocks::.cpu.data   301.102919                       # Average occupied blocks per requestor
system.cpu.dcache.tags.occ_blocks::.switch_cpus.data    21.942918                       # Average occupied blocks per requestor
system.cpu.dcache.tags.occ_blocks::.switch_cpus_1.data   188.951138                       # Average occupied blocks per requestor
system.cpu.dcache.tags.occ_percent::.cpu.data     0.588092                       # Average percentage of cache occupancy
system.cpu.dcache.tags.occ_percent::.switch_cpus.data     0.042857                       # Average percentage of cache occupancy
system.cpu.dcache.tags.occ_percent::.switch_cpus_1.data     0.369045                       # Average percentage of cache occupancy
system.cpu.dcache.tags.occ_percent::total     0.999994                       # Average percentage of cache occupancy
system.cpu.dcache.tags.occ_task_id_blocks::1024          512                       # Occupied blocks per task id
system.cpu.dcache.tags.age_task_id_blocks_1024::0           19                       # Occupied blocks per task id
system.cpu.dcache.tags.age_task_id_blocks_1024::1          100                       # Occupied blocks per task id
system.cpu.dcache.tags.age_task_id_blocks_1024::2          246                       # Occupied blocks per task id
system.cpu.dcache.tags.age_task_id_blocks_1024::3          113                       # Occupied blocks per task id
system.cpu.dcache.tags.age_task_id_blocks_1024::4           34                       # Occupied blocks per task id
system.cpu.dcache.tags.occ_task_id_percent::1024            1                       # Percentage of cache occupancy per task id
system.cpu.dcache.tags.tag_accesses        3490146205                       # Number of tag accesses
system.cpu.dcache.tags.data_accesses       3490146205                       # Number of data accesses
system.cpu.dcache.tags.power_state.pwrStateResidencyTicks::UNDEFINED 1941383824000                       # Cumulative time (in ticks) in various power states
system.cpu.power_state.numTransitions               2                       # Number of power state transitions
system.cpu.power_state.pwrStateResidencyTicks::ON 1123541821000                       # Cumulative time (in ticks) in various power states
system.cpu.power_state.pwrStateResidencyTicks::OFF 817842003000                       # Cumulative time (in ticks) in various power states

---------- End Simulation Statistics   ----------
