
---------- Begin Simulation Statistics ----------
final_tick                               5440623067000                       # Number of ticks from beginning of simulation (restored from checkpoints and never reset)
host_inst_rate                                  46021                       # Simulator instruction rate (inst/s)
host_mem_usage                                4544100                       # Number of bytes of host memory used
host_op_rate                                    82588                       # Simulator op (including micro ops) rate (op/s)
host_seconds                                 44544.94                       # Real time elapsed on the host
host_tick_rate                               87289494                       # Simulator tick rate (ticks/s)
sim_freq                                 1000000000000                       # Frequency of simulated ticks
sim_insts                                  2050000003                       # Number of instructions simulated
sim_ops                                    3678885925                       # Number of ops (including micro ops) simulated
sim_seconds                                  3.888305                       # Number of seconds simulated
sim_ticks                                3888304873000                       # Number of ticks simulated
system.cpu.committedInsts                           0                       # Number of instructions committed
system.cpu.committedOps                             0                       # Number of ops (including micro ops) committed
system.cpu.dtb.rdAccesses                           0                       # TLB accesses on read requests
system.cpu.dtb.rdMisses                             0                       # TLB misses on read requests
system.cpu.dtb.wrAccesses                           0                       # TLB accesses on write requests
system.cpu.dtb.wrMisses                             0                       # TLB misses on write requests
system.cpu.idle_fraction                            0                       # Percentage of idle cycles
system.cpu.itb.rdAccesses                           0                       # TLB accesses on read requests
system.cpu.itb.rdMisses                             0                       # TLB misses on read requests
system.cpu.itb.wrAccesses                           0                       # TLB accesses on write requests
system.cpu.itb.wrMisses                             0                       # TLB misses on write requests
system.cpu.not_idle_fraction                        1                       # Percentage of non-idle cycles
system.cpu.numCycles                                0                       # number of cpu cycles simulated
system.cpu.numWorkItemsCompleted                    0                       # number of work items this cpu completed
system.cpu.numWorkItemsStarted                      0                       # number of work items this cpu started
system.cpu.num_busy_cycles                          0                       # Number of busy cycles
system.cpu.num_conditional_control_insts            0                       # number of instructions that are conditional controls
system.cpu.num_fp_alu_accesses                      0                       # Number of float alu accesses
system.cpu.num_fp_insts                             0                       # number of float instructions
system.cpu.num_fp_register_reads                    0                       # number of times the floating registers were read
system.cpu.num_fp_register_writes                   0                       # number of times the floating registers were written
system.cpu.num_func_calls                           0                       # number of times a function call or return occured
system.cpu.num_idle_cycles                          0                       # Number of idle cycles
system.cpu.num_int_alu_accesses                     0                       # Number of integer alu accesses
system.cpu.num_int_insts                            0                       # number of integer instructions
system.cpu.num_int_register_reads                   0                       # number of times the integer registers were read
system.cpu.num_int_register_writes                  0                       # number of times the integer registers were written
system.cpu.num_load_insts                           0                       # Number of load instructions
system.cpu.num_mem_refs                             0                       # number of memory refs
system.cpu.num_store_insts                          0                       # Number of store instructions
system.cpu.num_vec_alu_accesses                     0                       # Number of vector alu accesses
system.cpu.num_vec_insts                            0                       # number of vector instructions
system.cpu.num_vec_register_reads                   0                       # number of times the vector registers were read
system.cpu.num_vec_register_writes                  0                       # number of times the vector registers were written
system.cpu.op_class::No_OpClass                     0                       # Class of executed instruction
system.cpu.op_class::IntAlu                         0                       # Class of executed instruction
system.cpu.op_class::IntMult                        0                       # Class of executed instruction
system.cpu.op_class::IntDiv                         0                       # Class of executed instruction
system.cpu.op_class::FloatAdd                       0                       # Class of executed instruction
system.cpu.op_class::FloatCmp                       0                       # Class of executed instruction
system.cpu.op_class::FloatCvt                       0                       # Class of executed instruction
system.cpu.op_class::FloatMult                      0                       # Class of executed instruction
system.cpu.op_class::FloatMultAcc                   0                       # Class of executed instruction
system.cpu.op_class::FloatDiv                       0                       # Class of executed instruction
system.cpu.op_class::FloatMisc                      0                       # Class of executed instruction
system.cpu.op_class::FloatSqrt                      0                       # Class of executed instruction
system.cpu.op_class::SimdAdd                        0                       # Class of executed instruction
system.cpu.op_class::SimdAddAcc                     0                       # Class of executed instruction
system.cpu.op_class::SimdAlu                        0                       # Class of executed instruction
system.cpu.op_class::SimdCmp                        0                       # Class of executed instruction
system.cpu.op_class::SimdCvt                        0                       # Class of executed instruction
system.cpu.op_class::SimdMisc                       0                       # Class of executed instruction
system.cpu.op_class::SimdMult                       0                       # Class of executed instruction
system.cpu.op_class::SimdMultAcc                    0                       # Class of executed instruction
system.cpu.op_class::SimdShift                      0                       # Class of executed instruction
system.cpu.op_class::SimdShiftAcc                   0                       # Class of executed instruction
system.cpu.op_class::SimdDiv                        0                       # Class of executed instruction
system.cpu.op_class::SimdSqrt                       0                       # Class of executed instruction
system.cpu.op_class::SimdFloatAdd                   0                       # Class of executed instruction
system.cpu.op_class::SimdFloatAlu                   0                       # Class of executed instruction
system.cpu.op_class::SimdFloatCmp                   0                       # Class of executed instruction
system.cpu.op_class::SimdFloatCvt                   0                       # Class of executed instruction
system.cpu.op_class::SimdFloatDiv                   0                       # Class of executed instruction
system.cpu.op_class::SimdFloatMisc                  0                       # Class of executed instruction
system.cpu.op_class::SimdFloatMult                  0                       # Class of executed instruction
system.cpu.op_class::SimdFloatMultAcc               0                       # Class of executed instruction
system.cpu.op_class::SimdFloatSqrt                  0                       # Class of executed instruction
system.cpu.op_class::SimdReduceAdd                  0                       # Class of executed instruction
system.cpu.op_class::SimdReduceAlu                  0                       # Class of executed instruction
system.cpu.op_class::SimdReduceCmp                  0                       # Class of executed instruction
system.cpu.op_class::SimdFloatReduceAdd             0                       # Class of executed instruction
system.cpu.op_class::SimdFloatReduceCmp             0                       # Class of executed instruction
system.cpu.op_class::SimdAes                        0                       # Class of executed instruction
system.cpu.op_class::SimdAesMix                     0                       # Class of executed instruction
system.cpu.op_class::SimdSha1Hash                   0                       # Class of executed instruction
system.cpu.op_class::SimdSha1Hash2                  0                       # Class of executed instruction
system.cpu.op_class::SimdSha256Hash                 0                       # Class of executed instruction
system.cpu.op_class::SimdSha256Hash2                0                       # Class of executed instruction
system.cpu.op_class::SimdShaSigma2                  0                       # Class of executed instruction
system.cpu.op_class::SimdShaSigma3                  0                       # Class of executed instruction
system.cpu.op_class::SimdPredAlu                    0                       # Class of executed instruction
system.cpu.op_class::MemRead                        0                       # Class of executed instruction
system.cpu.op_class::MemWrite                       0                       # Class of executed instruction
system.cpu.op_class::FloatMemRead                   0                       # Class of executed instruction
system.cpu.op_class::FloatMemWrite                  0                       # Class of executed instruction
system.cpu.op_class::IprAccess                      0                       # Class of executed instruction
system.cpu.op_class::InstPrefetch                   0                       # Class of executed instruction
system.cpu.op_class::total                          0                       # Class of executed instruction
system.cpu.workload.numSyscalls                     0                       # Number of system calls
system.membus.snoop_filter.hit_multi_requests            0                       # Number of requests hitting in the snoop filter with multiple (>1) holders of the requested data.
system.membus.snoop_filter.hit_multi_snoops            0                       # Number of snoops hitting in the snoop filter with multiple (>1) holders of the requested data.
system.membus.snoop_filter.hit_single_requests     61942860                       # Number of requests hitting in the snoop filter with a single holder of the requested data.
system.membus.snoop_filter.hit_single_snoops            0                       # Number of snoops hitting in the snoop filter with a single holder of the requested data.
system.membus.snoop_filter.tot_requests     123886749                       # Total number of requests made to the snoop filter.
system.membus.snoop_filter.tot_snoops               0                       # Total number of snoops made to the snoop filter.
system.switch_cpus.committedInsts                   0                       # Number of instructions committed
system.switch_cpus.committedOps                     0                       # Number of ops (including micro ops) committed
system.switch_cpus.dtb.rdAccesses                   0                       # TLB accesses on read requests
system.switch_cpus.dtb.rdMisses                     0                       # TLB misses on read requests
system.switch_cpus.dtb.wrAccesses                   0                       # TLB accesses on write requests
system.switch_cpus.dtb.wrMisses                     0                       # TLB misses on write requests
system.switch_cpus.idle_fraction                    0                       # Percentage of idle cycles
system.switch_cpus.itb.rdAccesses                   0                       # TLB accesses on read requests
system.switch_cpus.itb.rdMisses                     0                       # TLB misses on read requests
system.switch_cpus.itb.wrAccesses                   0                       # TLB accesses on write requests
system.switch_cpus.itb.wrMisses                     0                       # TLB misses on write requests
system.switch_cpus.not_idle_fraction                1                       # Percentage of non-idle cycles
system.switch_cpus.numCycles                        0                       # number of cpu cycles simulated
system.switch_cpus.numWorkItemsCompleted            0                       # number of work items this cpu completed
system.switch_cpus.numWorkItemsStarted              0                       # number of work items this cpu started
system.switch_cpus.num_busy_cycles                  0                       # Number of busy cycles
system.switch_cpus.num_conditional_control_insts            0                       # number of instructions that are conditional controls
system.switch_cpus.num_fp_alu_accesses              0                       # Number of float alu accesses
system.switch_cpus.num_fp_insts                     0                       # number of float instructions
system.switch_cpus.num_fp_register_reads            0                       # number of times the floating registers were read
system.switch_cpus.num_fp_register_writes            0                       # number of times the floating registers were written
system.switch_cpus.num_func_calls                   0                       # number of times a function call or return occured
system.switch_cpus.num_idle_cycles                  0                       # Number of idle cycles
system.switch_cpus.num_int_alu_accesses             0                       # Number of integer alu accesses
system.switch_cpus.num_int_insts                    0                       # number of integer instructions
system.switch_cpus.num_int_register_reads            0                       # number of times the integer registers were read
system.switch_cpus.num_int_register_writes            0                       # number of times the integer registers were written
system.switch_cpus.num_load_insts                   0                       # Number of load instructions
system.switch_cpus.num_mem_refs                     0                       # number of memory refs
system.switch_cpus.num_store_insts                  0                       # Number of store instructions
system.switch_cpus.num_vec_alu_accesses             0                       # Number of vector alu accesses
system.switch_cpus.num_vec_insts                    0                       # number of vector instructions
system.switch_cpus.num_vec_register_reads            0                       # number of times the vector registers were read
system.switch_cpus.num_vec_register_writes            0                       # number of times the vector registers were written
system.switch_cpus.op_class::No_OpClass             0                       # Class of executed instruction
system.switch_cpus.op_class::IntAlu                 0                       # Class of executed instruction
system.switch_cpus.op_class::IntMult                0                       # Class of executed instruction
system.switch_cpus.op_class::IntDiv                 0                       # Class of executed instruction
system.switch_cpus.op_class::FloatAdd               0                       # Class of executed instruction
system.switch_cpus.op_class::FloatCmp               0                       # Class of executed instruction
system.switch_cpus.op_class::FloatCvt               0                       # Class of executed instruction
system.switch_cpus.op_class::FloatMult              0                       # Class of executed instruction
system.switch_cpus.op_class::FloatMultAcc            0                       # Class of executed instruction
system.switch_cpus.op_class::FloatDiv               0                       # Class of executed instruction
system.switch_cpus.op_class::FloatMisc              0                       # Class of executed instruction
system.switch_cpus.op_class::FloatSqrt              0                       # Class of executed instruction
system.switch_cpus.op_class::SimdAdd                0                       # Class of executed instruction
system.switch_cpus.op_class::SimdAddAcc             0                       # Class of executed instruction
system.switch_cpus.op_class::SimdAlu                0                       # Class of executed instruction
system.switch_cpus.op_class::SimdCmp                0                       # Class of executed instruction
system.switch_cpus.op_class::SimdCvt                0                       # Class of executed instruction
system.switch_cpus.op_class::SimdMisc               0                       # Class of executed instruction
system.switch_cpus.op_class::SimdMult               0                       # Class of executed instruction
system.switch_cpus.op_class::SimdMultAcc            0                       # Class of executed instruction
system.switch_cpus.op_class::SimdShift              0                       # Class of executed instruction
system.switch_cpus.op_class::SimdShiftAcc            0                       # Class of executed instruction
system.switch_cpus.op_class::SimdDiv                0                       # Class of executed instruction
system.switch_cpus.op_class::SimdSqrt               0                       # Class of executed instruction
system.switch_cpus.op_class::SimdFloatAdd            0                       # Class of executed instruction
system.switch_cpus.op_class::SimdFloatAlu            0                       # Class of executed instruction
system.switch_cpus.op_class::SimdFloatCmp            0                       # Class of executed instruction
system.switch_cpus.op_class::SimdFloatCvt            0                       # Class of executed instruction
system.switch_cpus.op_class::SimdFloatDiv            0                       # Class of executed instruction
system.switch_cpus.op_class::SimdFloatMisc            0                       # Class of executed instruction
system.switch_cpus.op_class::SimdFloatMult            0                       # Class of executed instruction
system.switch_cpus.op_class::SimdFloatMultAcc            0                       # Class of executed instruction
system.switch_cpus.op_class::SimdFloatSqrt            0                       # Class of executed instruction
system.switch_cpus.op_class::SimdReduceAdd            0                       # Class of executed instruction
system.switch_cpus.op_class::SimdReduceAlu            0                       # Class of executed instruction
system.switch_cpus.op_class::SimdReduceCmp            0                       # Class of executed instruction
system.switch_cpus.op_class::SimdFloatReduceAdd            0                       # Class of executed instruction
system.switch_cpus.op_class::SimdFloatReduceCmp            0                       # Class of executed instruction
system.switch_cpus.op_class::SimdAes                0                       # Class of executed instruction
system.switch_cpus.op_class::SimdAesMix             0                       # Class of executed instruction
system.switch_cpus.op_class::SimdSha1Hash            0                       # Class of executed instruction
system.switch_cpus.op_class::SimdSha1Hash2            0                       # Class of executed instruction
system.switch_cpus.op_class::SimdSha256Hash            0                       # Class of executed instruction
system.switch_cpus.op_class::SimdSha256Hash2            0                       # Class of executed instruction
system.switch_cpus.op_class::SimdShaSigma2            0                       # Class of executed instruction
system.switch_cpus.op_class::SimdShaSigma3            0                       # Class of executed instruction
system.switch_cpus.op_class::SimdPredAlu            0                       # Class of executed instruction
system.switch_cpus.op_class::MemRead                0                       # Class of executed instruction
system.switch_cpus.op_class::MemWrite               0                       # Class of executed instruction
system.switch_cpus.op_class::FloatMemRead            0                       # Class of executed instruction
system.switch_cpus.op_class::FloatMemWrite            0                       # Class of executed instruction
system.switch_cpus.op_class::IprAccess              0                       # Class of executed instruction
system.switch_cpus.op_class::InstPrefetch            0                       # Class of executed instruction
system.switch_cpus.op_class::total                  0                       # Class of executed instruction
system.switch_cpus_1.branchPred.BTBCorrect            0                       # Number of correct BTB predictions (this stat may not work properly.
system.switch_cpus_1.branchPred.BTBHitPct          nan                       # BTB Hit Percentage
system.switch_cpus_1.branchPred.BTBHits             0                       # Number of BTB hits
system.switch_cpus_1.branchPred.BTBLookups            0                       # Number of BTB lookups
system.switch_cpus_1.branchPred.RASInCorrect           61                       # Number of incorrect RAS predictions.
system.switch_cpus_1.branchPred.condIncorrect     84189852                       # Number of conditional branches incorrect
system.switch_cpus_1.branchPred.condPredicted   1042927858                       # Number of conditional branches predicted
system.switch_cpus_1.branchPred.indirectHits    280133339                       # Number of indirect target hits.
system.switch_cpus_1.branchPred.indirectLookups    569286288                       # Number of indirect predictor lookups.
system.switch_cpus_1.branchPred.indirectMisses    289152949                       # Number of indirect misses.
system.switch_cpus_1.branchPred.lookups    1124174055                       # Number of BP lookups
system.switch_cpus_1.branchPred.usedRAS      47514075                       # Number of times the RAS was used to get a target.
system.switch_cpus_1.branchPredindirectMispredicted     39384129                       # Number of mispredicted indirect branches.
system.switch_cpus_1.cc_regfile_reads      2115746503                       # number of cc regfile reads
system.switch_cpus_1.cc_regfile_writes     1359848707                       # number of cc regfile writes
system.switch_cpus_1.commit.amos                    0                       # Number of atomic instructions committed
system.switch_cpus_1.commit.branchMispredicts     84189859                       # The number of times a branch was mispredicted
system.switch_cpus_1.commit.branches        255668228                       # Number of branches committed
system.switch_cpus_1.commit.bw_lim_events     79062240                       # number cycles where commit BW limit reached
system.switch_cpus_1.commit.commitSquashedInsts   3624851720                       # The number of squashed insts skipped by commit
system.switch_cpus_1.commit.committedInsts   1000000001                       # Number of instructions committed
system.switch_cpus_1.commit.committedOps   1749224775                       # Number of ops (including micro ops) committed
system.switch_cpus_1.commit.committed_per_cycle::samples   7183692877                       # Number of insts commited each cycle
system.switch_cpus_1.commit.committed_per_cycle::mean     0.243499                       # Number of insts commited each cycle
system.switch_cpus_1.commit.committed_per_cycle::stdev     1.088897                       # Number of insts commited each cycle
system.switch_cpus_1.commit.committed_per_cycle::underflows            0      0.00%      0.00% # Number of insts commited each cycle
system.switch_cpus_1.commit.committed_per_cycle::0   6651081815     92.59%     92.59% # Number of insts commited each cycle
system.switch_cpus_1.commit.committed_per_cycle::1    191287614      2.66%     95.25% # Number of insts commited each cycle
system.switch_cpus_1.commit.committed_per_cycle::2     52755116      0.73%     95.98% # Number of insts commited each cycle
system.switch_cpus_1.commit.committed_per_cycle::3    112425026      1.57%     97.55% # Number of insts commited each cycle
system.switch_cpus_1.commit.committed_per_cycle::4     32289461      0.45%     98.00% # Number of insts commited each cycle
system.switch_cpus_1.commit.committed_per_cycle::5     39329681      0.55%     98.54% # Number of insts commited each cycle
system.switch_cpus_1.commit.committed_per_cycle::6     21385786      0.30%     98.84% # Number of insts commited each cycle
system.switch_cpus_1.commit.committed_per_cycle::7      4076138      0.06%     98.90% # Number of insts commited each cycle
system.switch_cpus_1.commit.committed_per_cycle::8     79062240      1.10%    100.00% # Number of insts commited each cycle
system.switch_cpus_1.commit.committed_per_cycle::overflows            0      0.00%    100.00% # Number of insts commited each cycle
system.switch_cpus_1.commit.committed_per_cycle::min_value            0                       # Number of insts commited each cycle
system.switch_cpus_1.commit.committed_per_cycle::max_value            8                       # Number of insts commited each cycle
system.switch_cpus_1.commit.committed_per_cycle::total   7183692877                       # Number of insts commited each cycle
system.switch_cpus_1.commit.fp_insts                0                       # Number of committed floating point instructions.
system.switch_cpus_1.commit.function_calls      1517455                       # Number of function calls committed.
system.switch_cpus_1.commit.int_insts      1743711707                       # Number of committed integer instructions.
system.switch_cpus_1.commit.loads           368401121                       # Number of loads committed
system.switch_cpus_1.commit.membars                 0                       # Number of memory barriers committed
system.switch_cpus_1.commit.op_class_0::No_OpClass      3172259      0.18%      0.18% # Class of committed instruction
system.switch_cpus_1.commit.op_class_0::IntAlu   1306730757     74.70%     74.88% # Class of committed instruction
system.switch_cpus_1.commit.op_class_0::IntMult        52880      0.00%     74.89% # Class of committed instruction
system.switch_cpus_1.commit.op_class_0::IntDiv            0      0.00%     74.89% # Class of committed instruction
system.switch_cpus_1.commit.op_class_0::FloatAdd            0      0.00%     74.89% # Class of committed instruction
system.switch_cpus_1.commit.op_class_0::FloatCmp            0      0.00%     74.89% # Class of committed instruction
system.switch_cpus_1.commit.op_class_0::FloatCvt            0      0.00%     74.89% # Class of committed instruction
system.switch_cpus_1.commit.op_class_0::FloatMult            0      0.00%     74.89% # Class of committed instruction
system.switch_cpus_1.commit.op_class_0::FloatMultAcc            0      0.00%     74.89% # Class of committed instruction
system.switch_cpus_1.commit.op_class_0::FloatDiv            0      0.00%     74.89% # Class of committed instruction
system.switch_cpus_1.commit.op_class_0::FloatMisc            0      0.00%     74.89% # Class of committed instruction
system.switch_cpus_1.commit.op_class_0::FloatSqrt            0      0.00%     74.89% # Class of committed instruction
system.switch_cpus_1.commit.op_class_0::SimdAdd            0      0.00%     74.89% # Class of committed instruction
system.switch_cpus_1.commit.op_class_0::SimdAddAcc            0      0.00%     74.89% # Class of committed instruction
system.switch_cpus_1.commit.op_class_0::SimdAlu            0      0.00%     74.89% # Class of committed instruction
system.switch_cpus_1.commit.op_class_0::SimdCmp            0      0.00%     74.89% # Class of committed instruction
system.switch_cpus_1.commit.op_class_0::SimdCvt            0      0.00%     74.89% # Class of committed instruction
system.switch_cpus_1.commit.op_class_0::SimdMisc            0      0.00%     74.89% # Class of committed instruction
system.switch_cpus_1.commit.op_class_0::SimdMult            0      0.00%     74.89% # Class of committed instruction
system.switch_cpus_1.commit.op_class_0::SimdMultAcc            0      0.00%     74.89% # Class of committed instruction
system.switch_cpus_1.commit.op_class_0::SimdShift            0      0.00%     74.89% # Class of committed instruction
system.switch_cpus_1.commit.op_class_0::SimdShiftAcc            0      0.00%     74.89% # Class of committed instruction
system.switch_cpus_1.commit.op_class_0::SimdDiv            0      0.00%     74.89% # Class of committed instruction
system.switch_cpus_1.commit.op_class_0::SimdSqrt            0      0.00%     74.89% # Class of committed instruction
system.switch_cpus_1.commit.op_class_0::SimdFloatAdd            0      0.00%     74.89% # Class of committed instruction
system.switch_cpus_1.commit.op_class_0::SimdFloatAlu            0      0.00%     74.89% # Class of committed instruction
system.switch_cpus_1.commit.op_class_0::SimdFloatCmp            0      0.00%     74.89% # Class of committed instruction
system.switch_cpus_1.commit.op_class_0::SimdFloatCvt            0      0.00%     74.89% # Class of committed instruction
system.switch_cpus_1.commit.op_class_0::SimdFloatDiv            0      0.00%     74.89% # Class of committed instruction
system.switch_cpus_1.commit.op_class_0::SimdFloatMisc            0      0.00%     74.89% # Class of committed instruction
system.switch_cpus_1.commit.op_class_0::SimdFloatMult            0      0.00%     74.89% # Class of committed instruction
system.switch_cpus_1.commit.op_class_0::SimdFloatMultAcc            0      0.00%     74.89% # Class of committed instruction
system.switch_cpus_1.commit.op_class_0::SimdFloatSqrt            0      0.00%     74.89% # Class of committed instruction
system.switch_cpus_1.commit.op_class_0::SimdReduceAdd            0      0.00%     74.89% # Class of committed instruction
system.switch_cpus_1.commit.op_class_0::SimdReduceAlu            0      0.00%     74.89% # Class of committed instruction
system.switch_cpus_1.commit.op_class_0::SimdReduceCmp            0      0.00%     74.89% # Class of committed instruction
system.switch_cpus_1.commit.op_class_0::SimdFloatReduceAdd            0      0.00%     74.89% # Class of committed instruction
system.switch_cpus_1.commit.op_class_0::SimdFloatReduceCmp            0      0.00%     74.89% # Class of committed instruction
system.switch_cpus_1.commit.op_class_0::SimdAes            0      0.00%     74.89% # Class of committed instruction
system.switch_cpus_1.commit.op_class_0::SimdAesMix            0      0.00%     74.89% # Class of committed instruction
system.switch_cpus_1.commit.op_class_0::SimdSha1Hash            0      0.00%     74.89% # Class of committed instruction
system.switch_cpus_1.commit.op_class_0::SimdSha1Hash2            0      0.00%     74.89% # Class of committed instruction
system.switch_cpus_1.commit.op_class_0::SimdSha256Hash            0      0.00%     74.89% # Class of committed instruction
system.switch_cpus_1.commit.op_class_0::SimdSha256Hash2            0      0.00%     74.89% # Class of committed instruction
system.switch_cpus_1.commit.op_class_0::SimdShaSigma2            0      0.00%     74.89% # Class of committed instruction
system.switch_cpus_1.commit.op_class_0::SimdShaSigma3            0      0.00%     74.89% # Class of committed instruction
system.switch_cpus_1.commit.op_class_0::SimdPredAlu            0      0.00%     74.89% # Class of committed instruction
system.switch_cpus_1.commit.op_class_0::MemRead    368401121     21.06%     95.95% # Class of committed instruction
system.switch_cpus_1.commit.op_class_0::MemWrite     70867758      4.05%    100.00% # Class of committed instruction
system.switch_cpus_1.commit.op_class_0::FloatMemRead            0      0.00%    100.00% # Class of committed instruction
system.switch_cpus_1.commit.op_class_0::FloatMemWrite            0      0.00%    100.00% # Class of committed instruction
system.switch_cpus_1.commit.op_class_0::IprAccess            0      0.00%    100.00% # Class of committed instruction
system.switch_cpus_1.commit.op_class_0::InstPrefetch            0      0.00%    100.00% # Class of committed instruction
system.switch_cpus_1.commit.op_class_0::total   1749224775                       # Class of committed instruction
system.switch_cpus_1.commit.refs            439268879                       # Number of memory references committed
system.switch_cpus_1.commit.swp_count               0                       # Number of s/w prefetches committed
system.switch_cpus_1.commit.vec_insts               0                       # Number of committed Vector instructions.
system.switch_cpus_1.committedInsts        1000000001                       # Number of Instructions Simulated
system.switch_cpus_1.committedOps          1749224775                       # Number of Ops (including micro ops) Simulated
system.switch_cpus_1.cpi                     7.776610                       # CPI: Cycles Per Instruction
system.switch_cpus_1.cpi_total               7.776610                       # CPI: Total CPI of All Threads
system.switch_cpus_1.decode.BlockedCycles   6425744761                       # Number of cycles decode is blocked
system.switch_cpus_1.decode.DecodedInsts   6517585765                       # Number of instructions handled by decode
system.switch_cpus_1.decode.IdleCycles      369552480                       # Number of cycles decode is idle
system.switch_cpus_1.decode.RunCycles       710672568                       # Number of cycles decode is running
system.switch_cpus_1.decode.SquashCycles     84509214                       # Number of cycles decode is squashing
system.switch_cpus_1.decode.UnblockCycles    186130710                       # Number of cycles decode is unblocking
system.switch_cpus_1.dtb.rdAccesses         788500724                       # TLB accesses on read requests
system.switch_cpus_1.dtb.rdMisses            92148701                       # TLB misses on read requests
system.switch_cpus_1.dtb.wrAccesses         162033629                       # TLB accesses on write requests
system.switch_cpus_1.dtb.wrMisses             1305676                       # TLB misses on write requests
system.switch_cpus_1.fetch.Branches        1124174055                       # Number of branches that fetch encountered
system.switch_cpus_1.fetch.CacheLines       475872456                       # Number of cache lines fetched
system.switch_cpus_1.fetch.Cycles          7161055163                       # Number of cycles fetch has run and was not squashing or blocked
system.switch_cpus_1.fetch.IcacheSquashes     14052682                       # Number of outstanding Icache misses that were squashed
system.switch_cpus_1.fetch.Insts           4553380934                       # Number of instructions fetch has processed
system.switch_cpus_1.fetch.MiscStallCycles            7                       # Number of cycles fetch has spent waiting on interrupts, or bad addresses, or out of MSHRs
system.switch_cpus_1.fetch.PendingTrapStallCycles          163                       # Number of stall cycles due to pending traps
system.switch_cpus_1.fetch.SquashCycles     169018428                       # Number of cycles fetch has spent squashing
system.switch_cpus_1.fetch.branchRate        0.144558                       # Number of branch fetches per cycle
system.switch_cpus_1.fetch.icacheStallCycles    531045199                       # Number of cycles fetch is stalled on an Icache miss
system.switch_cpus_1.fetch.predictedBranches    327647414                       # Number of branches that fetch has predicted taken
system.switch_cpus_1.fetch.rate              0.585523                       # Number of inst fetches per cycle
system.switch_cpus_1.fetch.rateDist::samples   7776609746                       # Number of instructions fetched each cycle (Total)
system.switch_cpus_1.fetch.rateDist::mean     1.032503                       # Number of instructions fetched each cycle (Total)
system.switch_cpus_1.fetch.rateDist::stdev     2.520327                       # Number of instructions fetched each cycle (Total)
system.switch_cpus_1.fetch.rateDist::underflows            0      0.00%      0.00% # Number of instructions fetched each cycle (Total)
system.switch_cpus_1.fetch.rateDist::0     6516484427     83.80%     83.80% # Number of instructions fetched each cycle (Total)
system.switch_cpus_1.fetch.rateDist::1       52814201      0.68%     84.48% # Number of instructions fetched each cycle (Total)
system.switch_cpus_1.fetch.rateDist::2       84129469      1.08%     85.56% # Number of instructions fetched each cycle (Total)
system.switch_cpus_1.fetch.rateDist::3       64882219      0.83%     86.39% # Number of instructions fetched each cycle (Total)
system.switch_cpus_1.fetch.rateDist::4       86965269      1.12%     87.51% # Number of instructions fetched each cycle (Total)
system.switch_cpus_1.fetch.rateDist::5      111113886      1.43%     88.94% # Number of instructions fetched each cycle (Total)
system.switch_cpus_1.fetch.rateDist::6       32079914      0.41%     89.35% # Number of instructions fetched each cycle (Total)
system.switch_cpus_1.fetch.rateDist::7      107377695      1.38%     90.73% # Number of instructions fetched each cycle (Total)
system.switch_cpus_1.fetch.rateDist::8      720762666      9.27%    100.00% # Number of instructions fetched each cycle (Total)
system.switch_cpus_1.fetch.rateDist::overflows            0      0.00%    100.00% # Number of instructions fetched each cycle (Total)
system.switch_cpus_1.fetch.rateDist::min_value            0                       # Number of instructions fetched each cycle (Total)
system.switch_cpus_1.fetch.rateDist::max_value            8                       # Number of instructions fetched each cycle (Total)
system.switch_cpus_1.fetch.rateDist::total   7776609746                       # Number of instructions fetched each cycle (Total)
system.switch_cpus_1.iew.branchMispredicts    116112099                       # Number of branch mispredicts detected at execute
system.switch_cpus_1.iew.exec_branches      492862272                       # Number of branches executed
system.switch_cpus_1.iew.exec_nop                   0                       # number of nop insts executed
system.switch_cpus_1.iew.exec_rate           0.563589                       # Inst execution rate
system.switch_cpus_1.iew.exec_refs         1219313979                       # number of memory reference insts executed
system.switch_cpus_1.iew.exec_stores        162033629                       # Number of stores executed
system.switch_cpus_1.iew.exec_swp                   0                       # number of swp insts executed
system.switch_cpus_1.iew.iewBlockCycles    3687772239                       # Number of cycles IEW is blocking
system.switch_cpus_1.iew.iewDispLoadInsts   1026469195                       # Number of dispatched load instructions
system.switch_cpus_1.iew.iewDispNonSpecInsts            0                       # Number of dispatched non-speculative instructions
system.switch_cpus_1.iew.iewDispSquashedInsts      7547264                       # Number of squashed instructions skipped by dispatch
system.switch_cpus_1.iew.iewDispStoreInsts    281023007                       # Number of dispatched store instructions
system.switch_cpus_1.iew.iewDispatchedInsts   5367977284                       # Number of instructions dispatched to IQ
system.switch_cpus_1.iew.iewExecLoadInsts   1057280350                       # Number of load instructions executed
system.switch_cpus_1.iew.iewExecSquashedInsts    173270833                       # Number of squashed instructions skipped in execute
system.switch_cpus_1.iew.iewExecutedInsts   4382812339                       # Number of executed instructions
system.switch_cpus_1.iew.iewIQFullEvents     32356291                       # Number of times the IQ has become full, causing a stall
system.switch_cpus_1.iew.iewIdleCycles              0                       # Number of cycles IEW is idle
system.switch_cpus_1.iew.iewLSQFullEvents    516202103                       # Number of times the LSQ has become full, causing a stall
system.switch_cpus_1.iew.iewSquashCycles     84509214                       # Number of cycles IEW is squashing
system.switch_cpus_1.iew.iewUnblockCycles    570776303                       # Number of cycles IEW is unblocking
system.switch_cpus_1.iew.lsq.thread0.blockedLoads            0                       # Number of blocked loads due to partial load-store forwarding
system.switch_cpus_1.iew.lsq.thread0.cacheBlocked     41070751                       # Number of times an access to memory failed due to the cache being blocked
system.switch_cpus_1.iew.lsq.thread0.forwLoads     17727857                       # Number of loads that had data forwarded from stores
system.switch_cpus_1.iew.lsq.thread0.ignoredResponses       211336                       # Number of memory responses ignored because the instruction is squashed
system.switch_cpus_1.iew.lsq.thread0.invAddrLoads            0                       # Number of loads ignored due to an invalid address
system.switch_cpus_1.iew.lsq.thread0.invAddrSwpfs            0                       # Number of software prefetches ignored due to an invalid address
system.switch_cpus_1.iew.lsq.thread0.memOrderViolation       382915                       # Number of memory ordering violations
system.switch_cpus_1.iew.lsq.thread0.rescheduledLoads            0                       # Number of loads that were rescheduled
system.switch_cpus_1.iew.lsq.thread0.squashedLoads    658068056                       # Number of loads squashed
system.switch_cpus_1.iew.lsq.thread0.squashedStores    210155245                       # Number of stores squashed
system.switch_cpus_1.iew.memOrderViolationEvents       382915                       # Number of memory order violations
system.switch_cpus_1.iew.predictedNotTakenIncorrect    103926092                       # Number of branches that were predicted not taken incorrectly
system.switch_cpus_1.iew.predictedTakenIncorrect     12186007                       # Number of branches that were predicted taken incorrectly
system.switch_cpus_1.iew.wb_consumers      4276582336                       # num instructions consuming a value
system.switch_cpus_1.iew.wb_count          3944880101                       # cumulative count of insts written-back
system.switch_cpus_1.iew.wb_fanout           0.670071                       # average fanout of values written-back
system.switch_cpus_1.iew.wb_producers      2865615324                       # num instructions producing a value
system.switch_cpus_1.iew.wb_rate             0.507275                       # insts written-back per cycle
system.switch_cpus_1.iew.wb_sent           3983062259                       # cumulative count of insts sent to commit
system.switch_cpus_1.int_regfile_reads     5594851684                       # number of integer regfile reads
system.switch_cpus_1.int_regfile_writes    3265551020                       # number of integer regfile writes
system.switch_cpus_1.ipc                     0.128591                       # IPC: Instructions Per Cycle
system.switch_cpus_1.ipc_total               0.128591                       # IPC: Total IPC of All Threads
system.switch_cpus_1.iq.FU_type_0::No_OpClass     36856019      0.81%      0.81% # Type of FU issued
system.switch_cpus_1.iq.FU_type_0::IntAlu   3252085037     71.38%     72.19% # Type of FU issued
system.switch_cpus_1.iq.FU_type_0::IntMult        91477      0.00%     72.19% # Type of FU issued
system.switch_cpus_1.iq.FU_type_0::IntDiv            0      0.00%     72.19% # Type of FU issued
system.switch_cpus_1.iq.FU_type_0::FloatAdd            0      0.00%     72.19% # Type of FU issued
system.switch_cpus_1.iq.FU_type_0::FloatCmp            0      0.00%     72.19% # Type of FU issued
system.switch_cpus_1.iq.FU_type_0::FloatCvt            0      0.00%     72.19% # Type of FU issued
system.switch_cpus_1.iq.FU_type_0::FloatMult            0      0.00%     72.19% # Type of FU issued
system.switch_cpus_1.iq.FU_type_0::FloatMultAcc            0      0.00%     72.19% # Type of FU issued
system.switch_cpus_1.iq.FU_type_0::FloatDiv            0      0.00%     72.19% # Type of FU issued
system.switch_cpus_1.iq.FU_type_0::FloatMisc            0      0.00%     72.19% # Type of FU issued
system.switch_cpus_1.iq.FU_type_0::FloatSqrt            0      0.00%     72.19% # Type of FU issued
system.switch_cpus_1.iq.FU_type_0::SimdAdd            0      0.00%     72.19% # Type of FU issued
system.switch_cpus_1.iq.FU_type_0::SimdAddAcc            0      0.00%     72.19% # Type of FU issued
system.switch_cpus_1.iq.FU_type_0::SimdAlu            0      0.00%     72.19% # Type of FU issued
system.switch_cpus_1.iq.FU_type_0::SimdCmp            0      0.00%     72.19% # Type of FU issued
system.switch_cpus_1.iq.FU_type_0::SimdCvt            0      0.00%     72.19% # Type of FU issued
system.switch_cpus_1.iq.FU_type_0::SimdMisc            0      0.00%     72.19% # Type of FU issued
system.switch_cpus_1.iq.FU_type_0::SimdMult            0      0.00%     72.19% # Type of FU issued
system.switch_cpus_1.iq.FU_type_0::SimdMultAcc            0      0.00%     72.19% # Type of FU issued
system.switch_cpus_1.iq.FU_type_0::SimdShift            0      0.00%     72.19% # Type of FU issued
system.switch_cpus_1.iq.FU_type_0::SimdShiftAcc            0      0.00%     72.19% # Type of FU issued
system.switch_cpus_1.iq.FU_type_0::SimdDiv            0      0.00%     72.19% # Type of FU issued
system.switch_cpus_1.iq.FU_type_0::SimdSqrt            0      0.00%     72.19% # Type of FU issued
system.switch_cpus_1.iq.FU_type_0::SimdFloatAdd            0      0.00%     72.19% # Type of FU issued
system.switch_cpus_1.iq.FU_type_0::SimdFloatAlu            0      0.00%     72.19% # Type of FU issued
system.switch_cpus_1.iq.FU_type_0::SimdFloatCmp            0      0.00%     72.19% # Type of FU issued
system.switch_cpus_1.iq.FU_type_0::SimdFloatCvt            0      0.00%     72.19% # Type of FU issued
system.switch_cpus_1.iq.FU_type_0::SimdFloatDiv            0      0.00%     72.19% # Type of FU issued
system.switch_cpus_1.iq.FU_type_0::SimdFloatMisc            0      0.00%     72.19% # Type of FU issued
system.switch_cpus_1.iq.FU_type_0::SimdFloatMult            0      0.00%     72.19% # Type of FU issued
system.switch_cpus_1.iq.FU_type_0::SimdFloatMultAcc            0      0.00%     72.19% # Type of FU issued
system.switch_cpus_1.iq.FU_type_0::SimdFloatSqrt            0      0.00%     72.19% # Type of FU issued
system.switch_cpus_1.iq.FU_type_0::SimdReduceAdd            0      0.00%     72.19% # Type of FU issued
system.switch_cpus_1.iq.FU_type_0::SimdReduceAlu            0      0.00%     72.19% # Type of FU issued
system.switch_cpus_1.iq.FU_type_0::SimdReduceCmp            0      0.00%     72.19% # Type of FU issued
system.switch_cpus_1.iq.FU_type_0::SimdFloatReduceAdd            0      0.00%     72.19% # Type of FU issued
system.switch_cpus_1.iq.FU_type_0::SimdFloatReduceCmp            0      0.00%     72.19% # Type of FU issued
system.switch_cpus_1.iq.FU_type_0::SimdAes            0      0.00%     72.19% # Type of FU issued
system.switch_cpus_1.iq.FU_type_0::SimdAesMix            0      0.00%     72.19% # Type of FU issued
system.switch_cpus_1.iq.FU_type_0::SimdSha1Hash            0      0.00%     72.19% # Type of FU issued
system.switch_cpus_1.iq.FU_type_0::SimdSha1Hash2            0      0.00%     72.19% # Type of FU issued
system.switch_cpus_1.iq.FU_type_0::SimdSha256Hash            0      0.00%     72.19% # Type of FU issued
system.switch_cpus_1.iq.FU_type_0::SimdSha256Hash2            0      0.00%     72.19% # Type of FU issued
system.switch_cpus_1.iq.FU_type_0::SimdShaSigma2            0      0.00%     72.19% # Type of FU issued
system.switch_cpus_1.iq.FU_type_0::SimdShaSigma3            0      0.00%     72.19% # Type of FU issued
system.switch_cpus_1.iq.FU_type_0::SimdPredAlu            0      0.00%     72.19% # Type of FU issued
system.switch_cpus_1.iq.FU_type_0::MemRead   1090387868     23.93%     96.12% # Type of FU issued
system.switch_cpus_1.iq.FU_type_0::MemWrite    176662772      3.88%    100.00% # Type of FU issued
system.switch_cpus_1.iq.FU_type_0::FloatMemRead            0      0.00%    100.00% # Type of FU issued
system.switch_cpus_1.iq.FU_type_0::FloatMemWrite            0      0.00%    100.00% # Type of FU issued
system.switch_cpus_1.iq.FU_type_0::IprAccess            0      0.00%    100.00% # Type of FU issued
system.switch_cpus_1.iq.FU_type_0::InstPrefetch            0      0.00%    100.00% # Type of FU issued
system.switch_cpus_1.iq.FU_type_0::total   4556083173                       # Type of FU issued
system.switch_cpus_1.iq.fp_alu_accesses             0                       # Number of floating point alu accesses
system.switch_cpus_1.iq.fp_inst_queue_reads            0                       # Number of floating instruction queue reads
system.switch_cpus_1.iq.fp_inst_queue_wakeup_accesses            0                       # Number of floating instruction queue wakeup accesses
system.switch_cpus_1.iq.fp_inst_queue_writes            0                       # Number of floating instruction queue writes
system.switch_cpus_1.iq.fu_busy_cnt         110179978                       # FU busy when requested
system.switch_cpus_1.iq.fu_busy_rate         0.024183                       # FU busy rate (busy events/executed inst)
system.switch_cpus_1.iq.fu_full::No_OpClass            0      0.00%      0.00% # attempts to use FU when none available
system.switch_cpus_1.iq.fu_full::IntAlu      49966456     45.35%     45.35% # attempts to use FU when none available
system.switch_cpus_1.iq.fu_full::IntMult            0      0.00%     45.35% # attempts to use FU when none available
system.switch_cpus_1.iq.fu_full::IntDiv             0      0.00%     45.35% # attempts to use FU when none available
system.switch_cpus_1.iq.fu_full::FloatAdd            0      0.00%     45.35% # attempts to use FU when none available
system.switch_cpus_1.iq.fu_full::FloatCmp            0      0.00%     45.35% # attempts to use FU when none available
system.switch_cpus_1.iq.fu_full::FloatCvt            0      0.00%     45.35% # attempts to use FU when none available
system.switch_cpus_1.iq.fu_full::FloatMult            0      0.00%     45.35% # attempts to use FU when none available
system.switch_cpus_1.iq.fu_full::FloatMultAcc            0      0.00%     45.35% # attempts to use FU when none available
system.switch_cpus_1.iq.fu_full::FloatDiv            0      0.00%     45.35% # attempts to use FU when none available
system.switch_cpus_1.iq.fu_full::FloatMisc            0      0.00%     45.35% # attempts to use FU when none available
system.switch_cpus_1.iq.fu_full::FloatSqrt            0      0.00%     45.35% # attempts to use FU when none available
system.switch_cpus_1.iq.fu_full::SimdAdd            0      0.00%     45.35% # attempts to use FU when none available
system.switch_cpus_1.iq.fu_full::SimdAddAcc            0      0.00%     45.35% # attempts to use FU when none available
system.switch_cpus_1.iq.fu_full::SimdAlu            0      0.00%     45.35% # attempts to use FU when none available
system.switch_cpus_1.iq.fu_full::SimdCmp            0      0.00%     45.35% # attempts to use FU when none available
system.switch_cpus_1.iq.fu_full::SimdCvt            0      0.00%     45.35% # attempts to use FU when none available
system.switch_cpus_1.iq.fu_full::SimdMisc            0      0.00%     45.35% # attempts to use FU when none available
system.switch_cpus_1.iq.fu_full::SimdMult            0      0.00%     45.35% # attempts to use FU when none available
system.switch_cpus_1.iq.fu_full::SimdMultAcc            0      0.00%     45.35% # attempts to use FU when none available
system.switch_cpus_1.iq.fu_full::SimdShift            0      0.00%     45.35% # attempts to use FU when none available
system.switch_cpus_1.iq.fu_full::SimdShiftAcc            0      0.00%     45.35% # attempts to use FU when none available
system.switch_cpus_1.iq.fu_full::SimdDiv            0      0.00%     45.35% # attempts to use FU when none available
system.switch_cpus_1.iq.fu_full::SimdSqrt            0      0.00%     45.35% # attempts to use FU when none available
system.switch_cpus_1.iq.fu_full::SimdFloatAdd            0      0.00%     45.35% # attempts to use FU when none available
system.switch_cpus_1.iq.fu_full::SimdFloatAlu            0      0.00%     45.35% # attempts to use FU when none available
system.switch_cpus_1.iq.fu_full::SimdFloatCmp            0      0.00%     45.35% # attempts to use FU when none available
system.switch_cpus_1.iq.fu_full::SimdFloatCvt            0      0.00%     45.35% # attempts to use FU when none available
system.switch_cpus_1.iq.fu_full::SimdFloatDiv            0      0.00%     45.35% # attempts to use FU when none available
system.switch_cpus_1.iq.fu_full::SimdFloatMisc            0      0.00%     45.35% # attempts to use FU when none available
system.switch_cpus_1.iq.fu_full::SimdFloatMult            0      0.00%     45.35% # attempts to use FU when none available
system.switch_cpus_1.iq.fu_full::SimdFloatMultAcc            0      0.00%     45.35% # attempts to use FU when none available
system.switch_cpus_1.iq.fu_full::SimdFloatSqrt            0      0.00%     45.35% # attempts to use FU when none available
system.switch_cpus_1.iq.fu_full::SimdReduceAdd            0      0.00%     45.35% # attempts to use FU when none available
system.switch_cpus_1.iq.fu_full::SimdReduceAlu            0      0.00%     45.35% # attempts to use FU when none available
system.switch_cpus_1.iq.fu_full::SimdReduceCmp            0      0.00%     45.35% # attempts to use FU when none available
system.switch_cpus_1.iq.fu_full::SimdFloatReduceAdd            0      0.00%     45.35% # attempts to use FU when none available
system.switch_cpus_1.iq.fu_full::SimdFloatReduceCmp            0      0.00%     45.35% # attempts to use FU when none available
system.switch_cpus_1.iq.fu_full::SimdAes            0      0.00%     45.35% # attempts to use FU when none available
system.switch_cpus_1.iq.fu_full::SimdAesMix            0      0.00%     45.35% # attempts to use FU when none available
system.switch_cpus_1.iq.fu_full::SimdSha1Hash            0      0.00%     45.35% # attempts to use FU when none available
system.switch_cpus_1.iq.fu_full::SimdSha1Hash2            0      0.00%     45.35% # attempts to use FU when none available
system.switch_cpus_1.iq.fu_full::SimdSha256Hash            0      0.00%     45.35% # attempts to use FU when none available
system.switch_cpus_1.iq.fu_full::SimdSha256Hash2            0      0.00%     45.35% # attempts to use FU when none available
system.switch_cpus_1.iq.fu_full::SimdShaSigma2            0      0.00%     45.35% # attempts to use FU when none available
system.switch_cpus_1.iq.fu_full::SimdShaSigma3            0      0.00%     45.35% # attempts to use FU when none available
system.switch_cpus_1.iq.fu_full::SimdPredAlu            0      0.00%     45.35% # attempts to use FU when none available
system.switch_cpus_1.iq.fu_full::MemRead     57057139     51.79%     97.14% # attempts to use FU when none available
system.switch_cpus_1.iq.fu_full::MemWrite      3156383      2.86%    100.00% # attempts to use FU when none available
system.switch_cpus_1.iq.fu_full::FloatMemRead            0      0.00%    100.00% # attempts to use FU when none available
system.switch_cpus_1.iq.fu_full::FloatMemWrite            0      0.00%    100.00% # attempts to use FU when none available
system.switch_cpus_1.iq.fu_full::IprAccess            0      0.00%    100.00% # attempts to use FU when none available
system.switch_cpus_1.iq.fu_full::InstPrefetch            0      0.00%    100.00% # attempts to use FU when none available
system.switch_cpus_1.iq.int_alu_accesses   4629407132                       # Number of integer alu accesses
system.switch_cpus_1.iq.int_inst_queue_reads  17072891311                       # Number of integer instruction queue reads
system.switch_cpus_1.iq.int_inst_queue_wakeup_accesses   3944880101                       # Number of integer instruction queue wakeup accesses
system.switch_cpus_1.iq.int_inst_queue_writes   8987063452                       # Number of integer instruction queue writes
system.switch_cpus_1.iq.iqInstsAdded       5367977284                       # Number of instructions added to the IQ (excludes non-spec)
system.switch_cpus_1.iq.iqInstsIssued      4556083173                       # Number of instructions issued
system.switch_cpus_1.iq.iqSquashedInstsExamined   3618752416                       # Number of squashed instructions iterated over during squash; mainly for profiling
system.switch_cpus_1.iq.iqSquashedInstsIssued     73935242                       # Number of squashed instructions issued
system.switch_cpus_1.iq.iqSquashedOperandsExamined   4957899857                       # Number of squashed operands that are examined and possibly removed from graph
system.switch_cpus_1.iq.issued_per_cycle::samples   7776609746                       # Number of insts issued each cycle
system.switch_cpus_1.iq.issued_per_cycle::mean     0.585870                       # Number of insts issued each cycle
system.switch_cpus_1.iq.issued_per_cycle::stdev     1.508472                       # Number of insts issued each cycle
system.switch_cpus_1.iq.issued_per_cycle::underflows            0      0.00%      0.00% # Number of insts issued each cycle
system.switch_cpus_1.iq.issued_per_cycle::0   6351194872     81.67%     81.67% # Number of insts issued each cycle
system.switch_cpus_1.iq.issued_per_cycle::1    401801472      5.17%     86.84% # Number of insts issued each cycle
system.switch_cpus_1.iq.issued_per_cycle::2    248276895      3.19%     90.03% # Number of insts issued each cycle
system.switch_cpus_1.iq.issued_per_cycle::3    207830272      2.67%     92.70% # Number of insts issued each cycle
system.switch_cpus_1.iq.issued_per_cycle::4    185167065      2.38%     95.08% # Number of insts issued each cycle
system.switch_cpus_1.iq.issued_per_cycle::5    146710384      1.89%     96.97% # Number of insts issued each cycle
system.switch_cpus_1.iq.issued_per_cycle::6    131994080      1.70%     98.67% # Number of insts issued each cycle
system.switch_cpus_1.iq.issued_per_cycle::7     61025213      0.78%     99.45% # Number of insts issued each cycle
system.switch_cpus_1.iq.issued_per_cycle::8     42609493      0.55%    100.00% # Number of insts issued each cycle
system.switch_cpus_1.iq.issued_per_cycle::overflows            0      0.00%    100.00% # Number of insts issued each cycle
system.switch_cpus_1.iq.issued_per_cycle::min_value            0                       # Number of insts issued each cycle
system.switch_cpus_1.iq.issued_per_cycle::max_value            8                       # Number of insts issued each cycle
system.switch_cpus_1.iq.issued_per_cycle::total   7776609746                       # Number of insts issued each cycle
system.switch_cpus_1.iq.rate                 0.585870                       # Inst issue rate
system.switch_cpus_1.iq.vec_alu_accesses            0                       # Number of vector alu accesses
system.switch_cpus_1.iq.vec_inst_queue_reads            0                       # Number of vector instruction queue reads
system.switch_cpus_1.iq.vec_inst_queue_wakeup_accesses            0                       # Number of vector instruction queue wakeup accesses
system.switch_cpus_1.iq.vec_inst_queue_writes            0                       # Number of vector instruction queue writes
system.switch_cpus_1.itb.rdAccesses                 0                       # TLB accesses on read requests
system.switch_cpus_1.itb.rdMisses                   0                       # TLB misses on read requests
system.switch_cpus_1.itb.wrAccesses         475872511                       # TLB accesses on write requests
system.switch_cpus_1.itb.wrMisses                  60                       # TLB misses on write requests
system.switch_cpus_1.memDep0.conflictingLoads    101867800                       # Number of conflicting loads.
system.switch_cpus_1.memDep0.conflictingStores    102504997                       # Number of conflicting stores.
system.switch_cpus_1.memDep0.insertedLoads   1026469195                       # Number of loads inserted to the mem dependence unit.
system.switch_cpus_1.memDep0.insertedStores    281023007                       # Number of stores inserted to the mem dependence unit.
system.switch_cpus_1.misc_regfile_reads    2442502056                       # number of misc regfile reads
system.switch_cpus_1.numCycles             7776609746                       # number of cpu cycles simulated
system.switch_cpus_1.numWorkItemsCompleted            0                       # number of work items this cpu completed
system.switch_cpus_1.numWorkItemsStarted            0                       # number of work items this cpu started
system.switch_cpus_1.rename.BlockCycles    5466542055                       # Number of cycles rename is blocking
system.switch_cpus_1.rename.CommittedMaps   2122994459                       # Number of HB maps that are committed
system.switch_cpus_1.rename.IQFullEvents    407870831                       # Number of times rename has blocked due to IQ full
system.switch_cpus_1.rename.IdleCycles      461366958                       # Number of cycles rename is idle
system.switch_cpus_1.rename.LQFullEvents    632838937                       # Number of times rename has blocked due to LQ full
system.switch_cpus_1.rename.ROBFullEvents     58055886                       # Number of times rename has blocked due to ROB full
system.switch_cpus_1.rename.RenameLookups  15595501504                       # Number of register rename lookups that rename has made
system.switch_cpus_1.rename.RenamedInsts   6055252378                       # Number of instructions processed by rename
system.switch_cpus_1.rename.RenamedOperands   7105202587                       # Number of destination operands rename has renamed
system.switch_cpus_1.rename.RunCycles       766450912                       # Number of cycles rename is running
system.switch_cpus_1.rename.SQFullEvents     47955181                       # Number of times rename has blocked due to SQ full
system.switch_cpus_1.rename.SquashCycles     84509214                       # Number of cycles rename is squashing
system.switch_cpus_1.rename.UnblockCycles    997740595                       # Number of cycles rename is unblocking
system.switch_cpus_1.rename.UndoneMaps     4982208007                       # Number of HB maps that are undone due to squashing
system.switch_cpus_1.rename.int_rename_lookups   8457013804                       # Number of integer rename lookups
system.switch_cpus_1.rename.serializeStallCycles            0                       # count of cycles rename stalled for serializing inst
system.switch_cpus_1.rename.serializingInsts            0                       # count of serializing insts renamed
system.switch_cpus_1.rename.skidInsts       972096422                       # count of insts added to the skid buffer
system.switch_cpus_1.rename.tempSerializingInsts            0                       # count of temporary serializing insts renamed
system.switch_cpus_1.rob.rob_reads        12478707132                       # The number of ROB reads
system.switch_cpus_1.rob.rob_writes       11346622814                       # The number of ROB writes
system.tol2bus.snoop_filter.hit_multi_requests          269                       # Number of requests hitting in the snoop filter with multiple (>1) holders of the requested data.
system.tol2bus.snoop_filter.hit_multi_snoops            0                       # Number of snoops hitting in the snoop filter with multiple (>1) holders of the requested data.
system.tol2bus.snoop_filter.hit_single_requests    124849872                       # Number of requests hitting in the snoop filter with a single holder of the requested data.
system.tol2bus.snoop_filter.hit_single_snoops        47423                       # Number of snoops hitting in the snoop filter with a single holder of the requested data.
system.tol2bus.snoop_filter.tot_requests    229014716                       # Total number of requests made to the snoop filter.
system.tol2bus.snoop_filter.tot_snoops          47423                       # Total number of snoops made to the snoop filter.
system.tol3bus.snoop_filter.hit_multi_requests            0                       # Number of requests hitting in the snoop filter with multiple (>1) holders of the requested data.
system.tol3bus.snoop_filter.hit_multi_snoops            0                       # Number of snoops hitting in the snoop filter with multiple (>1) holders of the requested data.
system.tol3bus.snoop_filter.hit_single_requests    104845298                       # Number of requests hitting in the snoop filter with a single holder of the requested data.
system.tol3bus.snoop_filter.hit_single_snoops      2234779                       # Number of snoops hitting in the snoop filter with a single holder of the requested data.
system.tol3bus.snoop_filter.tot_requests    194898661                       # Total number of requests made to the snoop filter.
system.tol3bus.snoop_filter.tot_snoops        2234779                       # Total number of snoops made to the snoop filter.
system.membus.trans_dist::ReadResp           60804783                       # Transaction distribution
system.membus.trans_dist::WritebackDirty     15776577                       # Transaction distribution
system.membus.trans_dist::CleanEvict         46166133                       # Transaction distribution
system.membus.trans_dist::UpgradeReq               19                       # Transaction distribution
system.membus.trans_dist::ReadExReq           1139237                       # Transaction distribution
system.membus.trans_dist::ReadExResp          1139237                       # Transaction distribution
system.membus.trans_dist::ReadSharedReq      60804783                       # Transaction distribution
system.membus.pkt_count_system.l3.mem_side::system.mem_ctrls.port    185830769                       # Packet count per connected master and slave (bytes)
system.membus.pkt_count_system.l3.mem_side::total    185830769                       # Packet count per connected master and slave (bytes)
system.membus.pkt_count::total              185830769                       # Packet count per connected master and slave (bytes)
system.membus.pkt_size_system.l3.mem_side::system.mem_ctrls.port   4974118208                       # Cumulative packet size per connected master and slave (bytes)
system.membus.pkt_size_system.l3.mem_side::total   4974118208                       # Cumulative packet size per connected master and slave (bytes)
system.membus.pkt_size::total              4974118208                       # Cumulative packet size per connected master and slave (bytes)
system.membus.snoops                                0                       # Total snoops (count)
system.membus.snoopTraffic                          0                       # Total snoop traffic (bytes)
system.membus.snoop_fanout::samples          61944039                       # Request fanout histogram
system.membus.snoop_fanout::mean                    0                       # Request fanout histogram
system.membus.snoop_fanout::stdev                   0                       # Request fanout histogram
system.membus.snoop_fanout::underflows              0      0.00%      0.00% # Request fanout histogram
system.membus.snoop_fanout::0                61944039    100.00%    100.00% # Request fanout histogram
system.membus.snoop_fanout::1                       0      0.00%    100.00% # Request fanout histogram
system.membus.snoop_fanout::overflows               0      0.00%    100.00% # Request fanout histogram
system.membus.snoop_fanout::min_value               0                       # Request fanout histogram
system.membus.snoop_fanout::max_value               0                       # Request fanout histogram
system.membus.snoop_fanout::total            61944039                       # Request fanout histogram
system.membus.reqLayer2.occupancy        203061032000                       # Layer occupancy (ticks)
system.membus.reqLayer2.utilization               5.2                       # Layer utilization (%)
system.membus.respLayer1.occupancy       338708531250                       # Layer occupancy (ticks)
system.membus.respLayer1.utilization              8.7                       # Layer utilization (%)
system.membus.power_state.pwrStateResidencyTicks::UNDEFINED 5440623067000                       # Cumulative time (in ticks) in various power states
system.switch_cpus_1.dtb.walker.power_state.pwrStateResidencyTicks::UNDEFINED 5440623067000                       # Cumulative time (in ticks) in various power states
system.switch_cpus_1.itb.walker.power_state.pwrStateResidencyTicks::UNDEFINED 5440623067000                       # Cumulative time (in ticks) in various power states
system.switch_cpus_1.power_state.pwrStateResidencyTicks::OFF 5440623067000                       # Cumulative time (in ticks) in various power states
system.switch_cpus.dtb.walker.power_state.pwrStateResidencyTicks::UNDEFINED 5440623067000                       # Cumulative time (in ticks) in various power states
system.switch_cpus.itb.walker.power_state.pwrStateResidencyTicks::UNDEFINED 5440623067000                       # Cumulative time (in ticks) in various power states
system.switch_cpus.power_state.numTransitions            1                       # Number of power state transitions
system.switch_cpus.power_state.pwrStateResidencyTicks::OFF 5440623067000                       # Cumulative time (in ticks) in various power states
system.tol2bus.trans_dist::ReadResp          99879740                       # Transaction distribution
system.tol2bus.trans_dist::WritebackDirty     41277311                       # Transaction distribution
system.tol2bus.trans_dist::WritebackClean            5                       # Transaction distribution
system.tol2bus.trans_dist::CleanEvict        81428777                       # Transaction distribution
system.tol2bus.trans_dist::UpgradeReq        20685030                       # Transaction distribution
system.tol2bus.trans_dist::UpgradeResp       20685030                       # Transaction distribution
system.tol2bus.trans_dist::ReadExReq          4285103                       # Transaction distribution
system.tol2bus.trans_dist::ReadExResp         4285103                       # Transaction distribution
system.tol2bus.trans_dist::ReadCleanReq      99879740                       # Transaction distribution
system.tol2bus.pkt_count_system.cpu.icache.mem_side::system.l2.cpu_side           15                       # Packet count per connected master and slave (bytes)
system.tol2bus.pkt_count_system.cpu.dcache.mem_side::system.l2.cpu_side    353864574                       # Packet count per connected master and slave (bytes)
system.tol2bus.pkt_count::total             353864589                       # Packet count per connected master and slave (bytes)
system.tol2bus.pkt_size_system.cpu.icache.mem_side::system.l2.cpu_side          640                       # Cumulative packet size per connected master and slave (bytes)
system.tol2bus.pkt_size_system.cpu.dcache.mem_side::system.l2.cpu_side   8264621568                       # Cumulative packet size per connected master and slave (bytes)
system.tol2bus.pkt_size::total             8264622208                       # Cumulative packet size per connected master and slave (bytes)
system.tol2bus.snoops                        18541250                       # Total snoops (count)
system.tol2bus.snoopTraffic                1043675968                       # Total snoop traffic (bytes)
system.tol2bus.snoop_fanout::samples        143391123                       # Request fanout histogram
system.tol2bus.snoop_fanout::mean            0.000333                       # Request fanout histogram
system.tol2bus.snoop_fanout::stdev           0.018234                       # Request fanout histogram
system.tol2bus.snoop_fanout::underflows             0      0.00%      0.00% # Request fanout histogram
system.tol2bus.snoop_fanout::0              143343431     99.97%     99.97% # Request fanout histogram
system.tol2bus.snoop_fanout::1                  47692      0.03%    100.00% # Request fanout histogram
system.tol2bus.snoop_fanout::2                      0      0.00%    100.00% # Request fanout histogram
system.tol2bus.snoop_fanout::3                      0      0.00%    100.00% # Request fanout histogram
system.tol2bus.snoop_fanout::4                      0      0.00%    100.00% # Request fanout histogram
system.tol2bus.snoop_fanout::overflows              0      0.00%    100.00% # Request fanout histogram
system.tol2bus.snoop_fanout::min_value              0                       # Request fanout histogram
system.tol2bus.snoop_fanout::max_value              1                       # Request fanout histogram
system.tol2bus.snoop_fanout::total          143391123                       # Request fanout histogram
system.tol2bus.reqLayer0.occupancy       139477237000                       # Layer occupancy (ticks)
system.tol2bus.reqLayer0.utilization              3.6                       # Layer utilization (%)
system.tol2bus.respLayer1.occupancy      166589772000                       # Layer occupancy (ticks)
system.tol2bus.respLayer1.utilization             4.3                       # Layer utilization (%)
system.tol2bus.respLayer0.occupancy              7500                       # Layer occupancy (ticks)
system.tol2bus.respLayer0.utilization             0.0                       # Layer utilization (%)
system.tol2bus.power_state.pwrStateResidencyTicks::UNDEFINED 5440623067000                       # Cumulative time (in ticks) in various power states
system.voltage_domain.voltage                       1                       # Voltage in Volts
system.clk_domain.clock                          1000                       # Clock period in ticks
system.l2.demand_hits::.switch_cpus_1.inst            2                       # number of demand (read+write) hits
system.l2.demand_hits::.switch_cpus_1.data     14111214                       # number of demand (read+write) hits
system.l2.demand_hits::total                 14111216                       # number of demand (read+write) hits
system.l2.overall_hits::.switch_cpus_1.inst            2                       # number of overall hits
system.l2.overall_hits::.switch_cpus_1.data     14111214                       # number of overall hits
system.l2.overall_hits::total                14111216                       # number of overall hits
system.l2.demand_misses::.switch_cpus_1.inst            3                       # number of demand (read+write) misses
system.l2.demand_misses::.switch_cpus_1.data     90053624                       # number of demand (read+write) misses
system.l2.demand_misses::total               90053627                       # number of demand (read+write) misses
system.l2.overall_misses::.switch_cpus_1.inst            3                       # number of overall misses
system.l2.overall_misses::.switch_cpus_1.data     90053624                       # number of overall misses
system.l2.overall_misses::total              90053627                       # number of overall misses
system.l2.demand_miss_latency::.switch_cpus_1.inst       285500                       # number of demand (read+write) miss cycles
system.l2.demand_miss_latency::.switch_cpus_1.data 7886799922500                       # number of demand (read+write) miss cycles
system.l2.demand_miss_latency::total     7886800208000                       # number of demand (read+write) miss cycles
system.l2.overall_miss_latency::.switch_cpus_1.inst       285500                       # number of overall miss cycles
system.l2.overall_miss_latency::.switch_cpus_1.data 7886799922500                       # number of overall miss cycles
system.l2.overall_miss_latency::total    7886800208000                       # number of overall miss cycles
system.l2.demand_accesses::.switch_cpus_1.inst            5                       # number of demand (read+write) accesses
system.l2.demand_accesses::.switch_cpus_1.data    104164838                       # number of demand (read+write) accesses
system.l2.demand_accesses::total            104164843                       # number of demand (read+write) accesses
system.l2.overall_accesses::.switch_cpus_1.inst            5                       # number of overall (read+write) accesses
system.l2.overall_accesses::.switch_cpus_1.data    104164838                       # number of overall (read+write) accesses
system.l2.overall_accesses::total           104164843                       # number of overall (read+write) accesses
system.l2.demand_miss_rate::.switch_cpus_1.inst     0.600000                       # miss rate for demand accesses
system.l2.demand_miss_rate::.switch_cpus_1.data     0.864530                       # miss rate for demand accesses
system.l2.demand_miss_rate::total            0.864530                       # miss rate for demand accesses
system.l2.overall_miss_rate::.switch_cpus_1.inst     0.600000                       # miss rate for overall accesses
system.l2.overall_miss_rate::.switch_cpus_1.data     0.864530                       # miss rate for overall accesses
system.l2.overall_miss_rate::total           0.864530                       # miss rate for overall accesses
system.l2.demand_avg_miss_latency::.switch_cpus_1.inst 95166.666667                       # average overall miss latency
system.l2.demand_avg_miss_latency::.switch_cpus_1.data 87578.928778                       # average overall miss latency
system.l2.demand_avg_miss_latency::total 87578.929031                       # average overall miss latency
system.l2.overall_avg_miss_latency::.switch_cpus_1.inst 95166.666667                       # average overall miss latency
system.l2.overall_avg_miss_latency::.switch_cpus_1.data 87578.928778                       # average overall miss latency
system.l2.overall_avg_miss_latency::total 87578.929031                       # average overall miss latency
system.l2.blocked_cycles::no_mshrs                  0                       # number of cycles access was blocked
[...]
system.cpu.dcache.demand_miss_latency::.switch_cpus.data 404426451500                       # number of demand (read+write) miss cycles
system.cpu.dcache.demand_miss_latency::.switch_cpus_1.data 20781860915859                       # number of demand (read+write) miss cycles
system.cpu.dcache.demand_miss_latency::total 21186287367359                       # number of demand (read+write) miss cycles
system.cpu.dcache.overall_miss_latency::.switch_cpus.data 404426451500                       # number of overall miss cycles
system.cpu.dcache.overall_miss_latency::.switch_cpus_1.data 20781860915859                       # number of overall miss cycles
system.cpu.dcache.overall_miss_latency::total 21186287367359                       # number of overall miss cycles
system.cpu.dcache.demand_accesses::.cpu.data    383169174                       # number of demand (read+write) accesses
system.cpu.dcache.demand_accesses::.switch_cpus.data     21732167                       # number of demand (read+write) accesses
system.cpu.dcache.demand_accesses::.switch_cpus_1.data    797030656                       # number of demand (read+write) accesses
system.cpu.dcache.demand_accesses::total   1201931997                       # number of demand (read+write) accesses
system.cpu.dcache.overall_accesses::.cpu.data    383169174                       # number of overall (read+write) accesses
system.cpu.dcache.overall_accesses::.switch_cpus.data     21732167                       # number of overall (read+write) accesses
system.cpu.dcache.overall_accesses::.switch_cpus_1.data    797030656                       # number of overall (read+write) accesses
system.cpu.dcache.overall_accesses::total   1201931997                       # number of overall (read+write) accesses
system.cpu.dcache.demand_miss_rate::.cpu.data     0.170396                       # miss rate for demand accesses
system.cpu.dcache.demand_miss_rate::.switch_cpus.data     0.282430                       # miss rate for demand accesses
system.cpu.dcache.demand_miss_rate::.switch_cpus_1.data     0.370767                       # miss rate for demand accesses
system.cpu.dcache.demand_miss_rate::total     0.305292                       # miss rate for demand accesses
system.cpu.dcache.overall_miss_rate::.cpu.data     0.170396                       # miss rate for overall accesses
system.cpu.dcache.overall_miss_rate::.switch_cpus.data     0.282430                       # miss rate for overall accesses
system.cpu.dcache.overall_miss_rate::.switch_cpus_1.data     0.370767                       # miss rate for overall accesses
system.cpu.dcache.overall_miss_rate::total     0.305292                       # miss rate for overall accesses
system.cpu.dcache.demand_avg_miss_latency::.switch_cpus.data 65890.862526                       # average overall miss latency
system.cpu.dcache.demand_avg_miss_latency::.switch_cpus_1.data 70324.814312                       # average overall miss latency
system.cpu.dcache.demand_avg_miss_latency::total 57737.620921                       # average overall miss latency
system.cpu.dcache.overall_avg_miss_latency::.switch_cpus.data 65890.862526                       # average overall miss latency
system.cpu.dcache.overall_avg_miss_latency::.switch_cpus_1.data 70324.814312                       # average overall miss latency
system.cpu.dcache.overall_avg_miss_latency::total 57737.620921                       # average overall miss latency
system.cpu.dcache.blocked_cycles::no_mshrs   1668916586                       # number of cycles access was blocked
system.cpu.dcache.blocked_cycles::no_targets      8317542                       # number of cycles access was blocked
system.cpu.dcache.blocked::no_mshrs          44330447                       # number of cycles access was blocked
system.cpu.dcache.blocked::no_targets           72742                       # number of cycles access was blocked
system.cpu.dcache.avg_blocked_cycles::no_mshrs    37.647186                       # average number of cycles each access was blocked
system.cpu.dcache.avg_blocked_cycles::no_targets   114.343048                       # average number of cycles each access was blocked
system.cpu.dcache.writebacks::.writebacks     38656891                       # number of writebacks
system.cpu.dcache.writebacks::total          38656891                       # number of writebacks
system.cpu.dcache.demand_mshr_hits::.switch_cpus_1.data    170670941                       # number of demand (read+write) MSHR hits
system.cpu.dcache.demand_mshr_hits::total    170670941                       # number of demand (read+write) MSHR hits
system.cpu.dcache.overall_mshr_hits::.switch_cpus_1.data    170670941                       # number of overall MSHR hits
system.cpu.dcache.overall_mshr_hits::total    170670941                       # number of overall MSHR hits
system.cpu.dcache.demand_mshr_misses::.switch_cpus.data      6137823                       # number of demand (read+write) MSHR misses
system.cpu.dcache.demand_mshr_misses::.switch_cpus_1.data    124841548                       # number of demand (read+write) MSHR misses
system.cpu.dcache.demand_mshr_misses::total    130979371                       # number of demand (read+write) MSHR misses
system.cpu.dcache.overall_mshr_misses::.switch_cpus.data      6137823                       # number of overall MSHR misses
system.cpu.dcache.overall_mshr_misses::.switch_cpus_1.data    124841548                       # number of overall MSHR misses
system.cpu.dcache.overall_mshr_misses::total    130979371                       # number of overall MSHR misses
system.cpu.dcache.demand_mshr_miss_latency::.switch_cpus.data 398288628500                       # number of demand (read+write) MSHR miss cycles
system.cpu.dcache.demand_mshr_miss_latency::.switch_cpus_1.data 8657074561859                       # number of demand (read+write) MSHR miss cycles
system.cpu.dcache.demand_mshr_miss_latency::total 9055363190359                       # number of demand (read+write) MSHR miss cycles
system.cpu.dcache.overall_mshr_miss_latency::.switch_cpus.data 398288628500                       # number of overall MSHR miss cycles
system.cpu.dcache.overall_mshr_miss_latency::.switch_cpus_1.data 8657074561859                       # number of overall MSHR miss cycles
system.cpu.dcache.overall_mshr_miss_latency::total 9055363190359                       # number of overall MSHR miss cycles
system.cpu.dcache.demand_mshr_miss_rate::.switch_cpus.data     0.282430                       # mshr miss rate for demand accesses
system.cpu.dcache.demand_mshr_miss_rate::.switch_cpus_1.data     0.156633                       # mshr miss rate for demand accesses
system.cpu.dcache.demand_mshr_miss_rate::total     0.108974                       # mshr miss rate for demand accesses
system.cpu.dcache.overall_mshr_miss_rate::.switch_cpus.data     0.282430                       # mshr miss rate for overall accesses
system.cpu.dcache.overall_mshr_miss_rate::.switch_cpus_1.data     0.156633                       # mshr miss rate for overall accesses
system.cpu.dcache.overall_mshr_miss_rate::total     0.108974                       # mshr miss rate for overall accesses
system.cpu.dcache.demand_avg_mshr_miss_latency::.switch_cpus.data 64890.862526                       # average overall mshr miss latency
system.cpu.dcache.demand_avg_mshr_miss_latency::.switch_cpus_1.data 69344.498691                       # average overall mshr miss latency
system.cpu.dcache.demand_avg_mshr_miss_latency::total 69135.796891                       # average overall mshr miss latency
system.cpu.dcache.overall_avg_mshr_miss_latency::.switch_cpus.data 64890.862526                       # average overall mshr miss latency
system.cpu.dcache.overall_avg_mshr_miss_latency::.switch_cpus_1.data 69344.498691                       # average overall mshr miss latency
system.cpu.dcache.overall_avg_mshr_miss_latency::total 69135.796891                       # average overall mshr miss latency
system.cpu.dcache.replacements              164105528                       # number of replacements
system.cpu.dcache.ReadReq_hits::.cpu.data    231980023                       # number of ReadReq hits
system.cpu.dcache.ReadReq_hits::.switch_cpus.data     13404047                       # number of ReadReq hits
system.cpu.dcache.ReadReq_hits::.switch_cpus_1.data    455620543                       # number of ReadReq hits
system.cpu.dcache.ReadReq_hits::total       701004613                       # number of ReadReq hits
system.cpu.dcache.ReadReq_misses::.cpu.data     52843085                       # number of ReadReq misses
system.cpu.dcache.ReadReq_misses::.switch_cpus.data      4898100                       # number of ReadReq misses
system.cpu.dcache.ReadReq_misses::.switch_cpus_1.data    270542356                       # number of ReadReq misses
system.cpu.dcache.ReadReq_misses::total     328283541                       # number of ReadReq misses
system.cpu.dcache.ReadReq_miss_latency::.switch_cpus.data 373492697500                       # number of ReadReq miss cycles
system.cpu.dcache.ReadReq_miss_latency::.switch_cpus_1.data 20141595170000                       # number of ReadReq miss cycles
system.cpu.dcache.ReadReq_miss_latency::total 20515087867500                       # number of ReadReq miss cycles
system.cpu.dcache.ReadReq_accesses::.cpu.data    284823108                       # number of ReadReq accesses(hits+misses)
system.cpu.dcache.ReadReq_accesses::.switch_cpus.data     18302147                       # number of ReadReq accesses(hits+misses)
system.cpu.dcache.ReadReq_accesses::.switch_cpus_1.data    726162899                       # number of ReadReq accesses(hits+misses)
system.cpu.dcache.ReadReq_accesses::total   1029288154                       # number of ReadReq accesses(hits+misses)
system.cpu.dcache.ReadReq_miss_rate::.cpu.data     0.185529                       # miss rate for ReadReq accesses
system.cpu.dcache.ReadReq_miss_rate::.switch_cpus.data     0.267624                       # miss rate for ReadReq accesses
system.cpu.dcache.ReadReq_miss_rate::.switch_cpus_1.data     0.372564                       # miss rate for ReadReq accesses
system.cpu.dcache.ReadReq_miss_rate::total     0.318942                       # miss rate for ReadReq accesses
system.cpu.dcache.ReadReq_avg_miss_latency::.switch_cpus.data 76252.566812                       # average ReadReq miss latency
system.cpu.dcache.ReadReq_avg_miss_latency::.switch_cpus_1.data 74448.953087                       # average ReadReq miss latency
system.cpu.dcache.ReadReq_avg_miss_latency::total 62491.978139                       # average ReadReq miss latency
system.cpu.dcache.ReadReq_mshr_hits::.switch_cpus_1.data    170651943                       # number of ReadReq MSHR hits
system.cpu.dcache.ReadReq_mshr_hits::total    170651943                       # number of ReadReq MSHR hits
system.cpu.dcache.ReadReq_mshr_misses::.switch_cpus.data      4898100                       # number of ReadReq MSHR misses
system.cpu.dcache.ReadReq_mshr_misses::.switch_cpus_1.data     99890413                       # number of ReadReq MSHR misses
system.cpu.dcache.ReadReq_mshr_misses::total    104788513                       # number of ReadReq MSHR misses
system.cpu.dcache.ReadReq_mshr_miss_latency::.switch_cpus.data 368594597500                       # number of ReadReq MSHR miss cycles
system.cpu.dcache.ReadReq_mshr_miss_latency::.switch_cpus_1.data 8041916052500                       # number of ReadReq MSHR miss cycles
system.cpu.dcache.ReadReq_mshr_miss_latency::total 8410510650000                       # number of ReadReq MSHR miss cycles
system.cpu.dcache.ReadReq_mshr_miss_rate::.switch_cpus.data     0.267624                       # mshr miss rate for ReadReq accesses
system.cpu.dcache.ReadReq_mshr_miss_rate::.switch_cpus_1.data     0.137559                       # mshr miss rate for ReadReq accesses
system.cpu.dcache.ReadReq_mshr_miss_rate::total     0.101807                       # mshr miss rate for ReadReq accesses
system.cpu.dcache.ReadReq_avg_mshr_miss_latency::.switch_cpus.data 75252.566812                       # average ReadReq mshr miss latency
system.cpu.dcache.ReadReq_avg_mshr_miss_latency::.switch_cpus_1.data 80507.386154                       # average ReadReq mshr miss latency
system.cpu.dcache.ReadReq_avg_mshr_miss_latency::total 80261.761611                       # average ReadReq mshr miss latency
system.cpu.dcache.WriteReq_hits::.cpu.data     85898688                       # number of WriteReq hits
system.cpu.dcache.WriteReq_hits::.switch_cpus.data      2190297                       # number of WriteReq hits
system.cpu.dcache.WriteReq_hits::.switch_cpus_1.data     45897624                       # number of WriteReq hits
system.cpu.dcache.WriteReq_hits::total      133986609                       # number of WriteReq hits
system.cpu.dcache.WriteReq_misses::.cpu.data     12447378                       # number of WriteReq misses
system.cpu.dcache.WriteReq_misses::.switch_cpus.data      1239723                       # number of WriteReq misses
system.cpu.dcache.WriteReq_misses::.switch_cpus_1.data     24970133                       # number of WriteReq misses
system.cpu.dcache.WriteReq_misses::total     38657234                       # number of WriteReq misses
system.cpu.dcache.WriteReq_miss_latency::.switch_cpus.data  30933754000                       # number of WriteReq miss cycles
system.cpu.dcache.WriteReq_miss_latency::.switch_cpus_1.data 640265745859                       # number of WriteReq miss cycles
system.cpu.dcache.WriteReq_miss_latency::total 671199499859                       # number of WriteReq miss cycles
system.cpu.dcache.WriteReq_accesses::.cpu.data     98346066                       # number of WriteReq accesses(hits+misses)
system.cpu.dcache.WriteReq_accesses::.switch_cpus.data      3430020                       # number of WriteReq accesses(hits+misses)
system.cpu.dcache.WriteReq_accesses::.switch_cpus_1.data     70867757                       # number of WriteReq accesses(hits+misses)
system.cpu.dcache.WriteReq_accesses::total    172643843                       # number of WriteReq accesses(hits+misses)
system.cpu.dcache.WriteReq_miss_rate::.cpu.data     0.126567                       # miss rate for WriteReq accesses
system.cpu.dcache.WriteReq_miss_rate::.switch_cpus.data     0.361433                       # miss rate for WriteReq accesses
system.cpu.dcache.WriteReq_miss_rate::.switch_cpus_1.data     0.352348                       # miss rate for WriteReq accesses
system.cpu.dcache.WriteReq_miss_rate::total     0.223913                       # miss rate for WriteReq accesses
system.cpu.dcache.WriteReq_avg_miss_latency::.switch_cpus.data 24952.149795                       # average WriteReq miss latency
system.cpu.dcache.WriteReq_avg_miss_latency::.switch_cpus_1.data 25641.262938                       # average WriteReq miss latency
system.cpu.dcache.WriteReq_avg_miss_latency::total 17362.843391                       # average WriteReq miss latency
system.cpu.dcache.WriteReq_mshr_hits::.switch_cpus_1.data        18998                       # number of WriteReq MSHR hits
system.cpu.dcache.WriteReq_mshr_hits::total        18998                       # number of WriteReq MSHR hits
system.cpu.dcache.WriteReq_mshr_misses::.switch_cpus.data      1239723                       # number of WriteReq MSHR misses
system.cpu.dcache.WriteReq_mshr_misses::.switch_cpus_1.data     24951135                       # number of WriteReq MSHR misses
system.cpu.dcache.WriteReq_mshr_misses::total     26190858                       # number of WriteReq MSHR misses
system.cpu.dcache.WriteReq_mshr_miss_latency::.switch_cpus.data  29694031000                       # number of WriteReq MSHR miss cycles
system.cpu.dcache.WriteReq_mshr_miss_latency::.switch_cpus_1.data 615158509359                       # number of WriteReq MSHR miss cycles
system.cpu.dcache.WriteReq_mshr_miss_latency::total 644852540359                       # number of WriteReq MSHR miss cycles
system.cpu.dcache.WriteReq_mshr_miss_rate::.switch_cpus.data     0.361433                       # mshr miss rate for WriteReq accesses
system.cpu.dcache.WriteReq_mshr_miss_rate::.switch_cpus_1.data     0.352080                       # mshr miss rate for WriteReq accesses
system.cpu.dcache.WriteReq_mshr_miss_rate::total     0.151705                       # mshr miss rate for WriteReq accesses
system.cpu.dcache.WriteReq_avg_mshr_miss_latency::.switch_cpus.data 23952.149795                       # average WriteReq mshr miss latency
system.cpu.dcache.WriteReq_avg_mshr_miss_latency::.switch_cpus_1.data 24654.530119                       # average WriteReq mshr miss latency
system.cpu.dcache.WriteReq_avg_mshr_miss_latency::total 24621.283517                       # average WriteReq mshr miss latency
system.cpu.dcache.power_state.pwrStateResidencyTicks::UNDEFINED 5440623067000                       # Cumulative time (in ticks) in various power states
system.cpu.dcache.tags.tagsinuse           511.998639                       # Cycle average of tags in use
system.cpu.dcache.tags.total_refs          1041374811                       # Total number of references to valid blocks.
system.cpu.dcache.tags.sampled_refs         164106040                       # Sample count of references to valid blocks.
system.cpu.dcache.tags.avg_refs              6.345743                       # Average number of references to valid blocks.
system.cpu.dcache.tags.warmup_cycle              1500                       # Cycle when the warmup percentage was hit.
system.cpu.dcache.tags.occ_blocks::.cpu.data   100.719976                       # Average occupied blocks per requestor
system.cpu.dcache.tags.occ_blocks::.switch_cpus.data    45.363401                       # Average occupied blocks per requestor
system.cpu.dcache.tags.occ_blocks::.switch_cpus_1.data   365.915262                       # Average occupied blocks per requestor
system.cpu.dcache.tags.occ_percent::.cpu.data     0.196719                       # Average percentage of cache occupancy
system.cpu.dcache.tags.occ_percent::.switch_cpus.data     0.088600                       # Average percentage of cache occupancy
system.cpu.dcache.tags.occ_percent::.switch_cpus_1.data     0.714678                       # Average percentage of cache occupancy
system.cpu.dcache.tags.occ_percent::total     0.999997                       # Average percentage of cache occupancy
system.cpu.dcache.tags.occ_task_id_blocks::1024          512                       # Occupied blocks per task id
system.cpu.dcache.tags.age_task_id_blocks_1024::0          132                       # Occupied blocks per task id
system.cpu.dcache.tags.age_task_id_blocks_1024::1          379                       # Occupied blocks per task id
system.cpu.dcache.tags.age_task_id_blocks_1024::2            1                       # Occupied blocks per task id
system.cpu.dcache.tags.occ_task_id_percent::1024            1                       # Percentage of cache occupancy per task id
system.cpu.dcache.tags.tag_accesses        4971834028                       # Number of tag accesses
system.cpu.dcache.tags.data_accesses       4971834028                       # Number of data accesses
system.cpu.dcache.tags.power_state.pwrStateResidencyTicks::UNDEFINED 5440623067000                       # Cumulative time (in ticks) in various power states
system.cpu.power_state.numTransitions               2                       # Number of power state transitions
system.cpu.power_state.pwrStateResidencyTicks::ON 1070247824000                       # Cumulative time (in ticks) in various power states
system.cpu.power_state.pwrStateResidencyTicks::OFF 4370375243000                       # Cumulative time (in ticks) in various power states

---------- End Simulation Statistics   ----------
