
---------- Begin Simulation Statistics ----------
final_tick                               1661830037500                       # Number of ticks from beginning of simulation (restored from checkpoints and never reset)
host_inst_rate                                 214928                       # Simulator instruction rate (inst/s)
host_mem_usage                                4585540                       # Number of bytes of host memory used
host_op_rate                                   379751                       # Simulator op (including micro ops) rate (op/s)
host_seconds                                  9538.06                       # Real time elapsed on the host
host_tick_rate                               42552390                       # Simulator tick rate (ticks/s)
sim_freq                                 1000000000000                       # Frequency of simulated ticks
sim_insts                                  2050000005                       # Number of instructions simulated
sim_ops                                    3622091860                       # Number of ops (including micro ops) simulated
sim_seconds                                  0.405867                       # Number of seconds simulated
sim_ticks                                405867259000                       # Number of ticks simulated
system.cpu.committedInsts                           0                       # Number of instructions committed
system.cpu.committedOps                             0                       # Number of ops (including micro ops) committed
system.cpu.dtb.rdAccesses                           0                       # TLB accesses on read requests
system.cpu.dtb.rdMisses                             0                       # TLB misses on read requests
system.cpu.dtb.wrAccesses                           0                       # TLB accesses on write requests
system.cpu.dtb.wrMisses                             0                       # TLB misses on write requests
system.cpu.idle_fraction                            0                       # Percentage of idle cycles
system.cpu.itb.rdAccesses                           0                       # TLB accesses on read requests
system.cpu.itb.rdMisses                             0                       # TLB misses on read requests
system.cpu.itb.wrAccesses                           0                       # TLB accesses on write requests
system.cpu.itb.wrMisses                             0                       # TLB misses on write requests
system.cpu.not_idle_fraction                        1                       # Percentage of non-idle cycles
system.cpu.numCycles                                0                       # number of cpu cycles simulated
system.cpu.numWorkItemsCompleted                    0                       # number of work items this cpu completed
system.cpu.numWorkItemsStarted                      0                       # number of work items this cpu started
system.cpu.num_busy_cycles                          0                       # Number of busy cycles
system.cpu.num_conditional_control_insts            0                       # number of instructions that are conditional controls
system.cpu.num_fp_alu_accesses                      0                       # Number of float alu accesses
system.cpu.num_fp_insts                             0                       # number of float instructions
system.cpu.num_fp_register_reads                    0                       # number of times the floating registers were read
system.cpu.num_fp_register_writes                   0                       # number of times the floating registers were written
system.cpu.num_func_calls                           0                       # number of times a function call or return occured
system.cpu.num_idle_cycles                          0                       # Number of idle cycles
system.cpu.num_int_alu_accesses                     0                       # Number of integer alu accesses
system.cpu.num_int_insts                            0                       # number of integer instructions
system.cpu.num_int_register_reads                   0                       # number of times the integer registers were read
system.cpu.num_int_register_writes                  0                       # number of times the integer registers were written
system.cpu.num_load_insts                           0                       # Number of load instructions
system.cpu.num_mem_refs                             0                       # number of memory refs
system.cpu.num_store_insts                          0                       # Number of store instructions
system.cpu.num_vec_alu_accesses                     0                       # Number of vector alu accesses
system.cpu.num_vec_insts                            0                       # number of vector instructions
system.cpu.num_vec_register_reads                   0                       # number of times the vector registers were read
system.cpu.num_vec_register_writes                  0                       # number of times the vector registers were written
system.cpu.op_class::No_OpClass                     0                       # Class of executed instruction
system.cpu.op_class::IntAlu                         0                       # Class of executed instruction
system.cpu.op_class::IntMult                        0                       # Class of executed instruction
system.cpu.op_class::IntDiv                         0                       # Class of executed instruction
system.cpu.op_class::FloatAdd                       0                       # Class of executed instruction
system.cpu.op_class::FloatCmp                       0                       # Class of executed instruction
system.cpu.op_class::FloatCvt                       0                       # Class of executed instruction
system.cpu.op_class::FloatMult                      0                       # Class of executed instruction
system.cpu.op_class::FloatMultAcc                   0                       # Class of executed instruction
system.cpu.op_class::FloatDiv                       0                       # Class of executed instruction
system.cpu.op_class::FloatMisc                      0                       # Class of executed instruction
system.cpu.op_class::FloatSqrt                      0                       # Class of executed instruction
system.cpu.op_class::SimdAdd                        0                       # Class of executed instruction
system.cpu.op_class::SimdAddAcc                     0                       # Class of executed instruction
system.cpu.op_class::SimdAlu                        0                       # Class of executed instruction
system.cpu.op_class::SimdCmp                        0                       # Class of executed instruction
system.cpu.op_class::SimdCvt                        0                       # Class of executed instruction
system.cpu.op_class::SimdMisc                       0                       # Class of executed instruction
system.cpu.op_class::SimdMult                       0                       # Class of executed instruction
system.cpu.op_class::SimdMultAcc                    0                       # Class of executed instruction
system.cpu.op_class::SimdShift                      0                       # Class of executed instruction
system.cpu.op_class::SimdShiftAcc                   0                       # Class of executed instruction
system.cpu.op_class::SimdDiv                        0                       # Class of executed instruction
system.cpu.op_class::SimdSqrt                       0                       # Class of executed instruction
system.cpu.op_class::SimdFloatAdd                   0                       # Class of executed instruction
system.cpu.op_class::SimdFloatAlu                   0                       # Class of executed instruction
system.cpu.op_class::SimdFloatCmp                   0                       # Class of executed instruction
system.cpu.op_class::SimdFloatCvt                   0                       # Class of executed instruction
system.cpu.op_class::SimdFloatDiv                   0                       # Class of executed instruction
system.cpu.op_class::SimdFloatMisc                  0                       # Class of executed instruction
system.cpu.op_class::SimdFloatMult                  0                       # Class of executed instruction
system.cpu.op_class::SimdFloatMultAcc               0                       # Class of executed instruction
system.cpu.op_class::SimdFloatSqrt                  0                       # Class of executed instruction
system.cpu.op_class::SimdReduceAdd                  0                       # Class of executed instruction
system.cpu.op_class::SimdReduceAlu                  0                       # Class of executed instruction
system.cpu.op_class::SimdReduceCmp                  0                       # Class of executed instruction
system.cpu.op_class::SimdFloatReduceAdd             0                       # Class of executed instruction
system.cpu.op_class::SimdFloatReduceCmp             0                       # Class of executed instruction
system.cpu.op_class::SimdAes                        0                       # Class of executed instruction
system.cpu.op_class::SimdAesMix                     0                       # Class of executed instruction
system.cpu.op_class::SimdSha1Hash                   0                       # Class of executed instruction
system.cpu.op_class::SimdSha1Hash2                  0                       # Class of executed instruction
system.cpu.op_class::SimdSha256Hash                 0                       # Class of executed instruction
system.cpu.op_class::SimdSha256Hash2                0                       # Class of executed instruction
system.cpu.op_class::SimdShaSigma2                  0                       # Class of executed instruction
system.cpu.op_class::SimdShaSigma3                  0                       # Class of executed instruction
system.cpu.op_class::SimdPredAlu                    0                       # Class of executed instruction
system.cpu.op_class::MemRead                        0                       # Class of executed instruction
system.cpu.op_class::MemWrite                       0                       # Class of executed instruction
system.cpu.op_class::FloatMemRead                   0                       # Class of executed instruction
system.cpu.op_class::FloatMemWrite                  0                       # Class of executed instruction
system.cpu.op_class::IprAccess                      0                       # Class of executed instruction
system.cpu.op_class::InstPrefetch                   0                       # Class of executed instruction
system.cpu.op_class::total                          0                       # Class of executed instruction
system.cpu.workload.numSyscalls                   278                       # Number of system calls
system.membus.snoop_filter.hit_multi_requests            0                       # Number of requests hitting in the snoop filter with multiple (>1) holders of the requested data.
system.membus.snoop_filter.hit_multi_snoops            0                       # Number of snoops hitting in the snoop filter with multiple (>1) holders of the requested data.
system.membus.snoop_filter.hit_single_requests       638089                       # Number of requests hitting in the snoop filter with a single holder of the requested data.
system.membus.snoop_filter.hit_single_snoops            0                       # Number of snoops hitting in the snoop filter with a single holder of the requested data.
system.membus.snoop_filter.tot_requests       1273475                       # Total number of requests made to the snoop filter.
system.membus.snoop_filter.tot_snoops               0                       # Total number of snoops made to the snoop filter.
system.switch_cpus.committedInsts                   0                       # Number of instructions committed
system.switch_cpus.committedOps                     0                       # Number of ops (including micro ops) committed
system.switch_cpus.dtb.rdAccesses                   0                       # TLB accesses on read requests
system.switch_cpus.dtb.rdMisses                     0                       # TLB misses on read requests
system.switch_cpus.dtb.wrAccesses                   0                       # TLB accesses on write requests
system.switch_cpus.dtb.wrMisses                     0                       # TLB misses on write requests
system.switch_cpus.idle_fraction                    0                       # Percentage of idle cycles
system.switch_cpus.itb.rdAccesses                   0                       # TLB accesses on read requests
system.switch_cpus.itb.rdMisses                     0                       # TLB misses on read requests
system.switch_cpus.itb.wrAccesses                   0                       # TLB accesses on write requests
system.switch_cpus.itb.wrMisses                     0                       # TLB misses on write requests
system.switch_cpus.not_idle_fraction                1                       # Percentage of non-idle cycles
system.switch_cpus.numCycles                        0                       # number of cpu cycles simulated
system.switch_cpus.numWorkItemsCompleted            0                       # number of work items this cpu completed
system.switch_cpus.numWorkItemsStarted              0                       # number of work items this cpu started
system.switch_cpus.num_busy_cycles                  0                       # Number of busy cycles
system.switch_cpus.num_conditional_control_insts            0                       # number of instructions that are conditional controls
system.switch_cpus.num_fp_alu_accesses              0                       # Number of float alu accesses
system.switch_cpus.num_fp_insts                     0                       # number of float instructions
system.switch_cpus.num_fp_register_reads            0                       # number of times the floating registers were read
system.switch_cpus.num_fp_register_writes            0                       # number of times the floating registers were written
system.switch_cpus.num_func_calls                   0                       # number of times a function call or return occured
system.switch_cpus.num_idle_cycles                  0                       # Number of idle cycles
system.switch_cpus.num_int_alu_accesses             0                       # Number of integer alu accesses
system.switch_cpus.num_int_insts                    0                       # number of integer instructions
system.switch_cpus.num_int_register_reads            0                       # number of times the integer registers were read
system.switch_cpus.num_int_register_writes            0                       # number of times the integer registers were written
system.switch_cpus.num_load_insts                   0                       # Number of load instructions
system.switch_cpus.num_mem_refs                     0                       # number of memory refs
system.switch_cpus.num_store_insts                  0                       # Number of store instructions
system.switch_cpus.num_vec_alu_accesses             0                       # Number of vector alu accesses
system.switch_cpus.num_vec_insts                    0                       # number of vector instructions
system.switch_cpus.num_vec_register_reads            0                       # number of times the vector registers were read
system.switch_cpus.num_vec_register_writes            0                       # number of times the vector registers were written
system.switch_cpus.op_class::No_OpClass             0                       # Class of executed instruction
system.switch_cpus.op_class::IntAlu                 0                       # Class of executed instruction
system.switch_cpus.op_class::IntMult                0                       # Class of executed instruction
system.switch_cpus.op_class::IntDiv                 0                       # Class of executed instruction
system.switch_cpus.op_class::FloatAdd               0                       # Class of executed instruction
system.switch_cpus.op_class::FloatCmp               0                       # Class of executed instruction
system.switch_cpus.op_class::FloatCvt               0                       # Class of executed instruction
system.switch_cpus.op_class::FloatMult              0                       # Class of executed instruction
system.switch_cpus.op_class::FloatMultAcc            0                       # Class of executed instruction
system.switch_cpus.op_class::FloatDiv               0                       # Class of executed instruction
system.switch_cpus.op_class::FloatMisc              0                       # Class of executed instruction
system.switch_cpus.op_class::FloatSqrt              0                       # Class of executed instruction
system.switch_cpus.op_class::SimdAdd                0                       # Class of executed instruction
system.switch_cpus.op_class::SimdAddAcc             0                       # Class of executed instruction
system.switch_cpus.op_class::SimdAlu                0                       # Class of executed instruction
system.switch_cpus.op_class::SimdCmp                0                       # Class of executed instruction
system.switch_cpus.op_class::SimdCvt                0                       # Class of executed instruction
system.switch_cpus.op_class::SimdMisc               0                       # Class of executed instruction
system.switch_cpus.op_class::SimdMult               0                       # Class of executed instruction
system.switch_cpus.op_class::SimdMultAcc            0                       # Class of executed instruction
system.switch_cpus.op_class::SimdShift              0                       # Class of executed instruction
system.switch_cpus.op_class::SimdShiftAcc            0                       # Class of executed instruction
system.switch_cpus.op_class::SimdDiv                0                       # Class of executed instruction
system.switch_cpus.op_class::SimdSqrt               0                       # Class of executed instruction
system.switch_cpus.op_class::SimdFloatAdd            0                       # Class of executed instruction
system.switch_cpus.op_class::SimdFloatAlu            0                       # Class of executed instruction
system.switch_cpus.op_class::SimdFloatCmp            0                       # Class of executed instruction
system.switch_cpus.op_class::SimdFloatCvt            0                       # Class of executed instruction
system.switch_cpus.op_class::SimdFloatDiv            0                       # Class of executed instruction
system.switch_cpus.op_class::SimdFloatMisc            0                       # Class of executed instruction
system.switch_cpus.op_class::SimdFloatMult            0                       # Class of executed instruction
system.switch_cpus.op_class::SimdFloatMultAcc            0                       # Class of executed instruction
system.switch_cpus.op_class::SimdFloatSqrt            0                       # Class of executed instruction
system.switch_cpus.op_class::SimdReduceAdd            0                       # Class of executed instruction
system.switch_cpus.op_class::SimdReduceAlu            0                       # Class of executed instruction
system.switch_cpus.op_class::SimdReduceCmp            0                       # Class of executed instruction
system.switch_cpus.op_class::SimdFloatReduceAdd            0                       # Class of executed instruction
system.switch_cpus.op_class::SimdFloatReduceCmp            0                       # Class of executed instruction
system.switch_cpus.op_class::SimdAes                0                       # Class of executed instruction
system.switch_cpus.op_class::SimdAesMix             0                       # Class of executed instruction
system.switch_cpus.op_class::SimdSha1Hash            0                       # Class of executed instruction
system.switch_cpus.op_class::SimdSha1Hash2            0                       # Class of executed instruction
system.switch_cpus.op_class::SimdSha256Hash            0                       # Class of executed instruction
system.switch_cpus.op_class::SimdSha256Hash2            0                       # Class of executed instruction
system.switch_cpus.op_class::SimdShaSigma2            0                       # Class of executed instruction
system.switch_cpus.op_class::SimdShaSigma3            0                       # Class of executed instruction
system.switch_cpus.op_class::SimdPredAlu            0                       # Class of executed instruction
system.switch_cpus.op_class::MemRead                0                       # Class of executed instruction
system.switch_cpus.op_class::MemWrite               0                       # Class of executed instruction
system.switch_cpus.op_class::FloatMemRead            0                       # Class of executed instruction
system.switch_cpus.op_class::FloatMemWrite            0                       # Class of executed instruction
system.switch_cpus.op_class::IprAccess              0                       # Class of executed instruction
system.switch_cpus.op_class::InstPrefetch            0                       # Class of executed instruction
system.switch_cpus.op_class::total                  0                       # Class of executed instruction
system.switch_cpus_1.branchPred.BTBCorrect            0                       # Number of correct BTB predictions (this stat may not work properly.
system.switch_cpus_1.branchPred.BTBHitPct          nan                       # BTB Hit Percentage
system.switch_cpus_1.branchPred.BTBHits             0                       # Number of BTB hits
system.switch_cpus_1.branchPred.BTBLookups            0                       # Number of BTB lookups
system.switch_cpus_1.branchPred.RASInCorrect          437                       # Number of incorrect RAS predictions.
system.switch_cpus_1.branchPred.condIncorrect      7853305                       # Number of conditional branches incorrect
system.switch_cpus_1.branchPred.condPredicted    130785012                       # Number of conditional branches predicted
system.switch_cpus_1.branchPred.indirectHits     46186541                       # Number of indirect target hits.
system.switch_cpus_1.branchPred.indirectLookups     63221640                       # Number of indirect predictor lookups.
system.switch_cpus_1.branchPred.indirectMisses     17035099                       # Number of indirect misses.
system.switch_cpus_1.branchPred.lookups     139459730                       # Number of BP lookups
system.switch_cpus_1.branchPred.usedRAS       3360073                       # Number of times the RAS was used to get a target.
system.switch_cpus_1.branchPredindirectMispredicted      5539847                       # Number of mispredicted indirect branches.
system.switch_cpus_1.cc_regfile_reads       582359426                       # number of cc regfile reads
system.switch_cpus_1.cc_regfile_writes      414362676                       # number of cc regfile writes
system.switch_cpus_1.commit.amos                    0                       # Number of atomic instructions committed
system.switch_cpus_1.commit.branchMispredicts      7891692                       # The number of times a branch was mispredicted
system.switch_cpus_1.commit.branches         93355099                       # Number of branches committed
system.switch_cpus_1.commit.bw_lim_events    117471881                       # number cycles where commit BW limit reached
system.switch_cpus_1.commit.commitNonSpecStalls          296                       # The number of times commit has been forced to stall to communicate backwards
system.switch_cpus_1.commit.commitSquashedInsts    250835404                       # The number of squashed insts skipped by commit
system.switch_cpus_1.commit.committedInsts   1000000003                       # Number of instructions committed
system.switch_cpus_1.commit.committedOps   1588221853                       # Number of ops (including micro ops) committed
system.switch_cpus_1.commit.committed_per_cycle::samples    775046150                       # Number of insts commited each cycle
system.switch_cpus_1.commit.committed_per_cycle::mean     2.049196                       # Number of insts commited each cycle
system.switch_cpus_1.commit.committed_per_cycle::stdev     2.960773                       # Number of insts commited each cycle
system.switch_cpus_1.commit.committed_per_cycle::underflows            0      0.00%      0.00% # Number of insts commited each cycle
system.switch_cpus_1.commit.committed_per_cycle::0    419731398     54.16%     54.16% # Number of insts commited each cycle
system.switch_cpus_1.commit.committed_per_cycle::1     77963191     10.06%     64.21% # Number of insts commited each cycle
system.switch_cpus_1.commit.committed_per_cycle::2     55103155      7.11%     71.32% # Number of insts commited each cycle
system.switch_cpus_1.commit.committed_per_cycle::3     40968902      5.29%     76.61% # Number of insts commited each cycle
system.switch_cpus_1.commit.committed_per_cycle::4     20069546      2.59%     79.20% # Number of insts commited each cycle
system.switch_cpus_1.commit.committed_per_cycle::5     18579134      2.40%     81.60% # Number of insts commited each cycle
system.switch_cpus_1.commit.committed_per_cycle::6     11915857      1.54%     83.13% # Number of insts commited each cycle
system.switch_cpus_1.commit.committed_per_cycle::7     13243086      1.71%     84.84% # Number of insts commited each cycle
system.switch_cpus_1.commit.committed_per_cycle::8    117471881     15.16%    100.00% # Number of insts commited each cycle
system.switch_cpus_1.commit.committed_per_cycle::overflows            0      0.00%    100.00% # Number of insts commited each cycle
system.switch_cpus_1.commit.committed_per_cycle::min_value            0                       # Number of insts commited each cycle
system.switch_cpus_1.commit.committed_per_cycle::max_value            8                       # Number of insts commited each cycle
system.switch_cpus_1.commit.committed_per_cycle::total    775046150                       # Number of insts commited each cycle
system.switch_cpus_1.commit.fp_insts        736513454                       # Number of committed floating point instructions.
system.switch_cpus_1.commit.function_calls      2550541                       # Number of function calls committed.
system.switch_cpus_1.commit.int_insts      1038783176                       # Number of committed integer instructions.
system.switch_cpus_1.commit.loads           242962017                       # Number of loads committed
system.switch_cpus_1.commit.membars                 0                       # Number of memory barriers committed
system.switch_cpus_1.commit.op_class_0::No_OpClass      2815232      0.18%      0.18% # Class of committed instruction
system.switch_cpus_1.commit.op_class_0::IntAlu    809570724     50.97%     51.15% # Class of committed instruction
system.switch_cpus_1.commit.op_class_0::IntMult       509917      0.03%     51.18% # Class of committed instruction
system.switch_cpus_1.commit.op_class_0::IntDiv      4249994      0.27%     51.45% # Class of committed instruction
system.switch_cpus_1.commit.op_class_0::FloatAdd    109285470      6.88%     58.33% # Class of committed instruction
system.switch_cpus_1.commit.op_class_0::FloatCmp            0      0.00%     58.33% # Class of committed instruction
system.switch_cpus_1.commit.op_class_0::FloatCvt           32      0.00%     58.33% # Class of committed instruction
system.switch_cpus_1.commit.op_class_0::FloatMult            0      0.00%     58.33% # Class of committed instruction
system.switch_cpus_1.commit.op_class_0::FloatMultAcc            0      0.00%     58.33% # Class of committed instruction
system.switch_cpus_1.commit.op_class_0::FloatDiv            0      0.00%     58.33% # Class of committed instruction
system.switch_cpus_1.commit.op_class_0::FloatMisc            0      0.00%     58.33% # Class of committed instruction
system.switch_cpus_1.commit.op_class_0::FloatSqrt            0      0.00%     58.33% # Class of committed instruction
system.switch_cpus_1.commit.op_class_0::SimdAdd            0      0.00%     58.33% # Class of committed instruction
system.switch_cpus_1.commit.op_class_0::SimdAddAcc            0      0.00%     58.33% # Class of committed instruction
system.switch_cpus_1.commit.op_class_0::SimdAlu       324302      0.02%     58.35% # Class of committed instruction
system.switch_cpus_1.commit.op_class_0::SimdCmp            0      0.00%     58.35% # Class of committed instruction
system.switch_cpus_1.commit.op_class_0::SimdCvt       249720      0.02%     58.37% # Class of committed instruction
system.switch_cpus_1.commit.op_class_0::SimdMisc       250519      0.02%     58.38% # Class of committed instruction
system.switch_cpus_1.commit.op_class_0::SimdMult            0      0.00%     58.38% # Class of committed instruction
system.switch_cpus_1.commit.op_class_0::SimdMultAcc            0      0.00%     58.38% # Class of committed instruction
system.switch_cpus_1.commit.op_class_0::SimdShift            0      0.00%     58.38% # Class of committed instruction
system.switch_cpus_1.commit.op_class_0::SimdShiftAcc            0      0.00%     58.38% # Class of committed instruction
system.switch_cpus_1.commit.op_class_0::SimdDiv            0      0.00%     58.38% # Class of committed instruction
system.switch_cpus_1.commit.op_class_0::SimdSqrt            0      0.00%     58.38% # Class of committed instruction
system.switch_cpus_1.commit.op_class_0::SimdFloatAdd    153382151      9.66%     68.04% # Class of committed instruction
system.switch_cpus_1.commit.op_class_0::SimdFloatAlu            0      0.00%     68.04% # Class of committed instruction
system.switch_cpus_1.commit.op_class_0::SimdFloatCmp            0      0.00%     68.04% # Class of committed instruction
system.switch_cpus_1.commit.op_class_0::SimdFloatCvt     30122413      1.90%     69.94% # Class of committed instruction
system.switch_cpus_1.commit.op_class_0::SimdFloatDiv            0      0.00%     69.94% # Class of committed instruction
system.switch_cpus_1.commit.op_class_0::SimdFloatMisc            0      0.00%     69.94% # Class of committed instruction
system.switch_cpus_1.commit.op_class_0::SimdFloatMult    145223210      9.14%     79.08% # Class of committed instruction
system.switch_cpus_1.commit.op_class_0::SimdFloatMultAcc            0      0.00%     79.08% # Class of committed instruction
system.switch_cpus_1.commit.op_class_0::SimdFloatSqrt            0      0.00%     79.08% # Class of committed instruction
system.switch_cpus_1.commit.op_class_0::SimdReduceAdd            0      0.00%     79.08% # Class of committed instruction
system.switch_cpus_1.commit.op_class_0::SimdReduceAlu            0      0.00%     79.08% # Class of committed instruction
system.switch_cpus_1.commit.op_class_0::SimdReduceCmp            0      0.00%     79.08% # Class of committed instruction
system.switch_cpus_1.commit.op_class_0::SimdFloatReduceAdd            0      0.00%     79.08% # Class of committed instruction
system.switch_cpus_1.commit.op_class_0::SimdFloatReduceCmp            0      0.00%     79.08% # Class of committed instruction
system.switch_cpus_1.commit.op_class_0::SimdAes            0      0.00%     79.08% # Class of committed instruction
system.switch_cpus_1.commit.op_class_0::SimdAesMix            0      0.00%     79.08% # Class of committed instruction
system.switch_cpus_1.commit.op_class_0::SimdSha1Hash            0      0.00%     79.08% # Class of committed instruction
system.switch_cpus_1.commit.op_class_0::SimdSha1Hash2            0      0.00%     79.08% # Class of committed instruction
system.switch_cpus_1.commit.op_class_0::SimdSha256Hash            0      0.00%     79.08% # Class of committed instruction
system.switch_cpus_1.commit.op_class_0::SimdSha256Hash2            0      0.00%     79.08% # Class of committed instruction
system.switch_cpus_1.commit.op_class_0::SimdShaSigma2            0      0.00%     79.08% # Class of committed instruction
system.switch_cpus_1.commit.op_class_0::SimdShaSigma3            0      0.00%     79.08% # Class of committed instruction
system.switch_cpus_1.commit.op_class_0::SimdPredAlu            0      0.00%     79.08% # Class of committed instruction
system.switch_cpus_1.commit.op_class_0::MemRead     98880731      6.23%     85.31% # Class of committed instruction
system.switch_cpus_1.commit.op_class_0::MemWrite     43203164      2.72%     88.03% # Class of committed instruction
system.switch_cpus_1.commit.op_class_0::FloatMemRead    144081286      9.07%     97.10% # Class of committed instruction
system.switch_cpus_1.commit.op_class_0::FloatMemWrite     46072988      2.90%    100.00% # Class of committed instruction
system.switch_cpus_1.commit.op_class_0::IprAccess            0      0.00%    100.00% # Class of committed instruction
system.switch_cpus_1.commit.op_class_0::InstPrefetch            0      0.00%    100.00% # Class of committed instruction
system.switch_cpus_1.commit.op_class_0::total   1588221853                       # Class of committed instruction
system.switch_cpus_1.commit.refs            332238169                       # Number of memory references committed
system.switch_cpus_1.commit.swp_count               0                       # Number of s/w prefetches committed
system.switch_cpus_1.commit.vec_insts               0                       # Number of committed Vector instructions.
system.switch_cpus_1.committedInsts        1000000003                       # Number of Instructions Simulated
system.switch_cpus_1.committedOps          1588221853                       # Number of Ops (including micro ops) Simulated
system.switch_cpus_1.cpi                     0.811735                       # CPI: Cycles Per Instruction
system.switch_cpus_1.cpi_total               0.811735                       # CPI: Total CPI of All Threads
system.switch_cpus_1.decode.BlockedCycles    422899997                       # Number of cycles decode is blocked
system.switch_cpus_1.decode.DecodedInsts   1958139022                       # Number of instructions handled by decode
system.switch_cpus_1.decode.IdleCycles       99465163                       # Number of cycles decode is idle
system.switch_cpus_1.decode.RunCycles       237578451                       # Number of cycles decode is running
system.switch_cpus_1.decode.SquashCycles      7915561                       # Number of cycles decode is squashing
system.switch_cpus_1.decode.UnblockCycles     43808617                       # Number of cycles decode is unblocking
system.switch_cpus_1.dtb.rdAccesses         261246353                       # TLB accesses on read requests
system.switch_cpus_1.dtb.rdMisses              260919                       # TLB misses on read requests
system.switch_cpus_1.dtb.wrAccesses          94247069                       # TLB accesses on write requests
system.switch_cpus_1.dtb.wrMisses              280782                       # TLB misses on write requests
system.switch_cpus_1.fetch.Branches         139459730                       # Number of branches that fetch encountered
system.switch_cpus_1.fetch.CacheLines       126574130                       # Number of cache lines fetched
system.switch_cpus_1.fetch.Cycles           671863592                       # Number of cycles fetch has run and was not squashing or blocked
system.switch_cpus_1.fetch.IcacheSquashes      2134747                       # Number of outstanding Icache misses that were squashed
system.switch_cpus_1.fetch.IcacheWaitRetryStallCycles          265                       # Number of stall cycles due to full MSHR
system.switch_cpus_1.fetch.Insts           1239699309                       # Number of instructions fetch has processed
system.switch_cpus_1.fetch.MiscStallCycles        32645                       # Number of cycles fetch has spent waiting on interrupts, or bad addresses, or out of MSHRs
system.switch_cpus_1.fetch.PendingTrapStallCycles       349660                       # Number of stall cycles due to pending traps
system.switch_cpus_1.fetch.SquashCycles      15831122                       # Number of cycles fetch has spent squashing
system.switch_cpus_1.fetch.TlbCycles                6                       # Number of cycles fetch has spent waiting for tlb
system.switch_cpus_1.fetch.branchRate        0.171805                       # Number of branch fetches per cycle
system.switch_cpus_1.fetch.icacheStallCycles    131506065                       # Number of cycles fetch is stalled on an Icache miss
system.switch_cpus_1.fetch.predictedBranches     49546614                       # Number of branches that fetch has predicted taken
system.switch_cpus_1.fetch.rate              1.527223                       # Number of inst fetches per cycle
system.switch_cpus_1.fetch.rateDist::samples    811667794                       # Number of instructions fetched each cycle (Total)
system.switch_cpus_1.fetch.rateDist::mean     2.480031                       # Number of instructions fetched each cycle (Total)
system.switch_cpus_1.fetch.rateDist::stdev     3.451757                       # Number of instructions fetched each cycle (Total)
system.switch_cpus_1.fetch.rateDist::underflows            0      0.00%      0.00% # Number of instructions fetched each cycle (Total)
system.switch_cpus_1.fetch.rateDist::0      490746502     60.46%     60.46% # Number of instructions fetched each cycle (Total)
system.switch_cpus_1.fetch.rateDist::1       24889493      3.07%     63.53% # Number of instructions fetched each cycle (Total)
system.switch_cpus_1.fetch.rateDist::2       27349321      3.37%     66.90% # Number of instructions fetched each cycle (Total)
system.switch_cpus_1.fetch.rateDist::3       12296581      1.51%     68.41% # Number of instructions fetched each cycle (Total)
system.switch_cpus_1.fetch.rateDist::4       16602514      2.05%     70.46% # Number of instructions fetched each cycle (Total)
system.switch_cpus_1.fetch.rateDist::5       17218622      2.12%     72.58% # Number of instructions fetched each cycle (Total)
system.switch_cpus_1.fetch.rateDist::6       12890771      1.59%     74.17% # Number of instructions fetched each cycle (Total)
system.switch_cpus_1.fetch.rateDist::7       10755905      1.33%     75.49% # Number of instructions fetched each cycle (Total)
system.switch_cpus_1.fetch.rateDist::8      198918085     24.51%    100.00% # Number of instructions fetched each cycle (Total)
system.switch_cpus_1.fetch.rateDist::overflows            0      0.00%    100.00% # Number of instructions fetched each cycle (Total)
system.switch_cpus_1.fetch.rateDist::min_value            0                       # Number of instructions fetched each cycle (Total)
system.switch_cpus_1.fetch.rateDist::max_value            8                       # Number of instructions fetched each cycle (Total)
system.switch_cpus_1.fetch.rateDist::total    811667794                       # Number of instructions fetched each cycle (Total)
system.switch_cpus_1.fp_regfile_reads      1238375600                       # number of floating regfile reads
system.switch_cpus_1.fp_regfile_writes      692922991                       # number of floating regfile writes
system.switch_cpus_1.idleCycles                 66724                       # Total number of cycles that the CPU has spent unscheduled due to idling
system.switch_cpus_1.iew.branchMispredicts     10441611                       # Number of branch mispredicts detected at execute
system.switch_cpus_1.iew.exec_branches      105735352                       # Number of branches executed
system.switch_cpus_1.iew.exec_nop                   0                       # number of nop insts executed
system.switch_cpus_1.iew.exec_rate           2.142775                       # Inst execution rate
system.switch_cpus_1.iew.exec_refs          356143804                       # number of memory reference insts executed
system.switch_cpus_1.iew.exec_stores         94247068                       # Number of stores executed
system.switch_cpus_1.iew.exec_swp                   0                       # number of swp insts executed
system.switch_cpus_1.iew.iewBlockCycles     179539120                       # Number of cycles IEW is blocking
system.switch_cpus_1.iew.iewDispLoadInsts    272158131                       # Number of dispatched load instructions
system.switch_cpus_1.iew.iewDispNonSpecInsts        36581                       # Number of dispatched non-speculative instructions
system.switch_cpus_1.iew.iewDispSquashedInsts       643916                       # Number of squashed instructions skipped by dispatch
system.switch_cpus_1.iew.iewDispStoreInsts    100569668                       # Number of dispatched store instructions
system.switch_cpus_1.iew.iewDispatchedInsts   1839121694                       # Number of instructions dispatched to IQ
system.switch_cpus_1.iew.iewExecLoadInsts    261896736                       # Number of load instructions executed
system.switch_cpus_1.iew.iewExecSquashedInsts     20758760                       # Number of squashed instructions skipped in execute
system.switch_cpus_1.iew.iewExecutedInsts   1739364437                       # Number of executed instructions
system.switch_cpus_1.iew.iewIQFullEvents      2517614                       # Number of times the IQ has become full, causing a stall
system.switch_cpus_1.iew.iewIdleCycles              0                       # Number of cycles IEW is idle
system.switch_cpus_1.iew.iewLSQFullEvents     12032600                       # Number of times the LSQ has become full, causing a stall
system.switch_cpus_1.iew.iewSquashCycles      7915561                       # Number of cycles IEW is squashing
system.switch_cpus_1.iew.iewUnblockCycles     17861140                       # Number of cycles IEW is unblocking
system.switch_cpus_1.iew.lsq.thread0.blockedLoads            0                       # Number of blocked loads due to partial load-store forwarding
system.switch_cpus_1.iew.lsq.thread0.cacheBlocked       207088                       # Number of times an access to memory failed due to the cache being blocked
system.switch_cpus_1.iew.lsq.thread0.forwLoads     16797008                       # Number of loads that had data forwarded from stores
system.switch_cpus_1.iew.lsq.thread0.ignoredResponses        39669                       # Number of memory responses ignored because the instruction is squashed
system.switch_cpus_1.iew.lsq.thread0.invAddrLoads            0                       # Number of loads ignored due to an invalid address
system.switch_cpus_1.iew.lsq.thread0.invAddrSwpfs            0                       # Number of software prefetches ignored due to an invalid address
system.switch_cpus_1.iew.lsq.thread0.memOrderViolation        56713                       # Number of memory ordering violations
system.switch_cpus_1.iew.lsq.thread0.rescheduledLoads        34926                       # Number of loads that were rescheduled
system.switch_cpus_1.iew.lsq.thread0.squashedLoads     29196111                       # Number of loads squashed
system.switch_cpus_1.iew.lsq.thread0.squashedStores     11293515                       # Number of stores squashed
system.switch_cpus_1.iew.memOrderViolationEvents        56713                       # Number of memory order violations
system.switch_cpus_1.iew.predictedNotTakenIncorrect      9515589                       # Number of branches that were predicted not taken incorrectly
system.switch_cpus_1.iew.predictedTakenIncorrect       926022                       # Number of branches that were predicted taken incorrectly
system.switch_cpus_1.iew.wb_consumers      2216619400                       # num instructions consuming a value
system.switch_cpus_1.iew.wb_count          1730168555                       # cumulative count of insts written-back
system.switch_cpus_1.iew.wb_fanout           0.568415                       # average fanout of values written-back
system.switch_cpus_1.iew.wb_producers      1259959402                       # num instructions producing a value
system.switch_cpus_1.iew.wb_rate             2.131446                       # insts written-back per cycle
system.switch_cpus_1.iew.wb_sent           1733445932                       # cumulative count of insts sent to commit
system.switch_cpus_1.int_regfile_reads     1828805103                       # number of integer regfile reads
system.switch_cpus_1.int_regfile_writes     835562388                       # number of integer regfile writes
system.switch_cpus_1.ipc                     1.231930                       # IPC: Instructions Per Cycle
system.switch_cpus_1.ipc_total               1.231930                       # IPC: Total IPC of All Threads
system.switch_cpus_1.iq.FU_type_0::No_OpClass      5528275      0.31%      0.31% # Type of FU issued
system.switch_cpus_1.iq.FU_type_0::IntAlu    942471311     53.55%     53.86% # Type of FU issued
system.switch_cpus_1.iq.FU_type_0::IntMult       522145      0.03%     53.89% # Type of FU issued
system.switch_cpus_1.iq.FU_type_0::IntDiv      4531229      0.26%     54.15% # Type of FU issued
system.switch_cpus_1.iq.FU_type_0::FloatAdd    112942696      6.42%     60.56% # Type of FU issued
system.switch_cpus_1.iq.FU_type_0::FloatCmp            0      0.00%     60.56% # Type of FU issued
system.switch_cpus_1.iq.FU_type_0::FloatCvt          764      0.00%     60.56% # Type of FU issued
system.switch_cpus_1.iq.FU_type_0::FloatMult            0      0.00%     60.56% # Type of FU issued
system.switch_cpus_1.iq.FU_type_0::FloatMultAcc            0      0.00%     60.56% # Type of FU issued
system.switch_cpus_1.iq.FU_type_0::FloatDiv            2      0.00%     60.56% # Type of FU issued
system.switch_cpus_1.iq.FU_type_0::FloatMisc            0      0.00%     60.56% # Type of FU issued
system.switch_cpus_1.iq.FU_type_0::FloatSqrt            0      0.00%     60.56% # Type of FU issued
system.switch_cpus_1.iq.FU_type_0::SimdAdd            0      0.00%     60.56% # Type of FU issued
system.switch_cpus_1.iq.FU_type_0::SimdAddAcc            0      0.00%     60.56% # Type of FU issued
system.switch_cpus_1.iq.FU_type_0::SimdAlu       421168      0.02%     60.59% # Type of FU issued
system.switch_cpus_1.iq.FU_type_0::SimdCmp            0      0.00%     60.59% # Type of FU issued
system.switch_cpus_1.iq.FU_type_0::SimdCvt       249779      0.01%     60.60% # Type of FU issued
system.switch_cpus_1.iq.FU_type_0::SimdMisc       250591      0.01%     60.62% # Type of FU issued
system.switch_cpus_1.iq.FU_type_0::SimdMult            0      0.00%     60.62% # Type of FU issued
system.switch_cpus_1.iq.FU_type_0::SimdMultAcc            0      0.00%     60.62% # Type of FU issued
system.switch_cpus_1.iq.FU_type_0::SimdShift            0      0.00%     60.62% # Type of FU issued
system.switch_cpus_1.iq.FU_type_0::SimdShiftAcc            0      0.00%     60.62% # Type of FU issued
system.switch_cpus_1.iq.FU_type_0::SimdDiv            0      0.00%     60.62% # Type of FU issued
system.switch_cpus_1.iq.FU_type_0::SimdSqrt            0      0.00%     60.62% # Type of FU issued
system.switch_cpus_1.iq.FU_type_0::SimdFloatAdd    155035151      8.81%     69.42% # Type of FU issued
system.switch_cpus_1.iq.FU_type_0::SimdFloatAlu            0      0.00%     69.42% # Type of FU issued
system.switch_cpus_1.iq.FU_type_0::SimdFloatCmp            0      0.00%     69.42% # Type of FU issued
system.switch_cpus_1.iq.FU_type_0::SimdFloatCvt     30634002      1.74%     71.16% # Type of FU issued
system.switch_cpus_1.iq.FU_type_0::SimdFloatDiv            0      0.00%     71.16% # Type of FU issued
system.switch_cpus_1.iq.FU_type_0::SimdFloatMisc            0      0.00%     71.16% # Type of FU issued
system.switch_cpus_1.iq.FU_type_0::SimdFloatMult    146203810      8.31%     79.47% # Type of FU issued
system.switch_cpus_1.iq.FU_type_0::SimdFloatMultAcc            0      0.00%     79.47% # Type of FU issued
system.switch_cpus_1.iq.FU_type_0::SimdFloatSqrt            0      0.00%     79.47% # Type of FU issued
system.switch_cpus_1.iq.FU_type_0::SimdReduceAdd            0      0.00%     79.47% # Type of FU issued
system.switch_cpus_1.iq.FU_type_0::SimdReduceAlu            0      0.00%     79.47% # Type of FU issued
system.switch_cpus_1.iq.FU_type_0::SimdReduceCmp            0      0.00%     79.47% # Type of FU issued
system.switch_cpus_1.iq.FU_type_0::SimdFloatReduceAdd            0      0.00%     79.47% # Type of FU issued
system.switch_cpus_1.iq.FU_type_0::SimdFloatReduceCmp            0      0.00%     79.47% # Type of FU issued
system.switch_cpus_1.iq.FU_type_0::SimdAes            0      0.00%     79.47% # Type of FU issued
system.switch_cpus_1.iq.FU_type_0::SimdAesMix            0      0.00%     79.47% # Type of FU issued
system.switch_cpus_1.iq.FU_type_0::SimdSha1Hash            0      0.00%     79.47% # Type of FU issued
system.switch_cpus_1.iq.FU_type_0::SimdSha1Hash2            0      0.00%     79.47% # Type of FU issued
system.switch_cpus_1.iq.FU_type_0::SimdSha256Hash            0      0.00%     79.47% # Type of FU issued
system.switch_cpus_1.iq.FU_type_0::SimdSha256Hash2            0      0.00%     79.47% # Type of FU issued
system.switch_cpus_1.iq.FU_type_0::SimdShaSigma2            0      0.00%     79.47% # Type of FU issued
system.switch_cpus_1.iq.FU_type_0::SimdShaSigma3            0      0.00%     79.47% # Type of FU issued
system.switch_cpus_1.iq.FU_type_0::SimdPredAlu            0      0.00%     79.47% # Type of FU issued
system.switch_cpus_1.iq.FU_type_0::MemRead    118966125      6.76%     86.23% # Type of FU issued
system.switch_cpus_1.iq.FU_type_0::MemWrite     49290596      2.80%     89.03% # Type of FU issued
system.switch_cpus_1.iq.FU_type_0::FloatMemRead    146666932      8.33%     97.36% # Type of FU issued
system.switch_cpus_1.iq.FU_type_0::FloatMemWrite     46408629      2.64%    100.00% # Type of FU issued
system.switch_cpus_1.iq.FU_type_0::IprAccess            0      0.00%    100.00% # Type of FU issued
system.switch_cpus_1.iq.FU_type_0::InstPrefetch            0      0.00%    100.00% # Type of FU issued
system.switch_cpus_1.iq.FU_type_0::total   1760123205                       # Type of FU issued
system.switch_cpus_1.iq.fp_alu_accesses     780242949                       # Number of floating point alu accesses
system.switch_cpus_1.iq.fp_inst_queue_reads   1533366382                       # Number of floating instruction queue reads
system.switch_cpus_1.iq.fp_inst_queue_wakeup_accesses    749080374                       # Number of floating instruction queue wakeup accesses
system.switch_cpus_1.iq.fp_inst_queue_writes    792244648                       # Number of floating instruction queue writes
system.switch_cpus_1.iq.fu_busy_cnt          45673548                       # FU busy when requested
system.switch_cpus_1.iq.fu_busy_rate         0.025949                       # FU busy rate (busy events/executed inst)
system.switch_cpus_1.iq.fu_full::No_OpClass            0      0.00%      0.00% # attempts to use FU when none available
system.switch_cpus_1.iq.fu_full::IntAlu      14359649     31.44%     31.44% # attempts to use FU when none available
system.switch_cpus_1.iq.fu_full::IntMult            0      0.00%     31.44% # attempts to use FU when none available
system.switch_cpus_1.iq.fu_full::IntDiv             0      0.00%     31.44% # attempts to use FU when none available
system.switch_cpus_1.iq.fu_full::FloatAdd            1      0.00%     31.44% # attempts to use FU when none available
system.switch_cpus_1.iq.fu_full::FloatCmp            0      0.00%     31.44% # attempts to use FU when none available
system.switch_cpus_1.iq.fu_full::FloatCvt            0      0.00%     31.44% # attempts to use FU when none available
system.switch_cpus_1.iq.fu_full::FloatMult            0      0.00%     31.44% # attempts to use FU when none available
system.switch_cpus_1.iq.fu_full::FloatMultAcc            0      0.00%     31.44% # attempts to use FU when none available
system.switch_cpus_1.iq.fu_full::FloatDiv            0      0.00%     31.44% # attempts to use FU when none available
system.switch_cpus_1.iq.fu_full::FloatMisc            0      0.00%     31.44% # attempts to use FU when none available
system.switch_cpus_1.iq.fu_full::FloatSqrt            0      0.00%     31.44% # attempts to use FU when none available
system.switch_cpus_1.iq.fu_full::SimdAdd            0      0.00%     31.44% # attempts to use FU when none available
system.switch_cpus_1.iq.fu_full::SimdAddAcc            0      0.00%     31.44% # attempts to use FU when none available
system.switch_cpus_1.iq.fu_full::SimdAlu           99      0.00%     31.44% # attempts to use FU when none available
system.switch_cpus_1.iq.fu_full::SimdCmp            0      0.00%     31.44% # attempts to use FU when none available
system.switch_cpus_1.iq.fu_full::SimdCvt            0      0.00%     31.44% # attempts to use FU when none available
system.switch_cpus_1.iq.fu_full::SimdMisc            3      0.00%     31.44% # attempts to use FU when none available
system.switch_cpus_1.iq.fu_full::SimdMult            0      0.00%     31.44% # attempts to use FU when none available
system.switch_cpus_1.iq.fu_full::SimdMultAcc            0      0.00%     31.44% # attempts to use FU when none available
system.switch_cpus_1.iq.fu_full::SimdShift            0      0.00%     31.44% # attempts to use FU when none available
system.switch_cpus_1.iq.fu_full::SimdShiftAcc            0      0.00%     31.44% # attempts to use FU when none available
system.switch_cpus_1.iq.fu_full::SimdDiv            0      0.00%     31.44% # attempts to use FU when none available
system.switch_cpus_1.iq.fu_full::SimdSqrt            0      0.00%     31.44% # attempts to use FU when none available
system.switch_cpus_1.iq.fu_full::SimdFloatAdd      5735732     12.56%     44.00% # attempts to use FU when none available
system.switch_cpus_1.iq.fu_full::SimdFloatAlu            0      0.00%     44.00% # attempts to use FU when none available
system.switch_cpus_1.iq.fu_full::SimdFloatCmp            0      0.00%     44.00% # attempts to use FU when none available
system.switch_cpus_1.iq.fu_full::SimdFloatCvt        22612      0.05%     44.05% # attempts to use FU when none available
system.switch_cpus_1.iq.fu_full::SimdFloatDiv            0      0.00%     44.05% # attempts to use FU when none available
system.switch_cpus_1.iq.fu_full::SimdFloatMisc            0      0.00%     44.05% # attempts to use FU when none available
system.switch_cpus_1.iq.fu_full::SimdFloatMult      9566225     20.94%     64.99% # attempts to use FU when none available
system.switch_cpus_1.iq.fu_full::SimdFloatMultAcc            0      0.00%     64.99% # attempts to use FU when none available
system.switch_cpus_1.iq.fu_full::SimdFloatSqrt            0      0.00%     64.99% # attempts to use FU when none available
system.switch_cpus_1.iq.fu_full::SimdReduceAdd            0      0.00%     64.99% # attempts to use FU when none available
system.switch_cpus_1.iq.fu_full::SimdReduceAlu            0      0.00%     64.99% # attempts to use FU when none available
system.switch_cpus_1.iq.fu_full::SimdReduceCmp            0      0.00%     64.99% # attempts to use FU when none available
system.switch_cpus_1.iq.fu_full::SimdFloatReduceAdd            0      0.00%     64.99% # attempts to use FU when none available
system.switch_cpus_1.iq.fu_full::SimdFloatReduceCmp            0      0.00%     64.99% # attempts to use FU when none available
system.switch_cpus_1.iq.fu_full::SimdAes            0      0.00%     64.99% # attempts to use FU when none available
system.switch_cpus_1.iq.fu_full::SimdAesMix            0      0.00%     64.99% # attempts to use FU when none available
system.switch_cpus_1.iq.fu_full::SimdSha1Hash            0      0.00%     64.99% # attempts to use FU when none available
system.switch_cpus_1.iq.fu_full::SimdSha1Hash2            0      0.00%     64.99% # attempts to use FU when none available
system.switch_cpus_1.iq.fu_full::SimdSha256Hash            0      0.00%     64.99% # attempts to use FU when none available
system.switch_cpus_1.iq.fu_full::SimdSha256Hash2            0      0.00%     64.99% # attempts to use FU when none available
system.switch_cpus_1.iq.fu_full::SimdShaSigma2            0      0.00%     64.99% # attempts to use FU when none available
system.switch_cpus_1.iq.fu_full::SimdShaSigma3            0      0.00%     64.99% # attempts to use FU when none available
system.switch_cpus_1.iq.fu_full::SimdPredAlu            0      0.00%     64.99% # attempts to use FU when none available
system.switch_cpus_1.iq.fu_full::MemRead      5133707     11.24%     76.23% # attempts to use FU when none available
system.switch_cpus_1.iq.fu_full::MemWrite        65766      0.14%     76.38% # attempts to use FU when none available
system.switch_cpus_1.iq.fu_full::FloatMemRead     10777157     23.60%     99.97% # attempts to use FU when none available
system.switch_cpus_1.iq.fu_full::FloatMemWrite        12597      0.03%    100.00% # attempts to use FU when none available
system.switch_cpus_1.iq.fu_full::IprAccess            0      0.00%    100.00% # attempts to use FU when none available
system.switch_cpus_1.iq.fu_full::InstPrefetch            0      0.00%    100.00% # attempts to use FU when none available
system.switch_cpus_1.iq.int_alu_accesses   1020025529                       # Number of integer alu accesses
system.switch_cpus_1.iq.int_inst_queue_reads   2846977049                       # Number of integer instruction queue reads
system.switch_cpus_1.iq.int_inst_queue_wakeup_accesses    981088181                       # Number of integer instruction queue wakeup accesses
system.switch_cpus_1.iq.int_inst_queue_writes   1297795099                       # Number of integer instruction queue writes
system.switch_cpus_1.iq.iqInstsAdded       1839012772                       # Number of instructions added to the IQ (excludes non-spec)
system.switch_cpus_1.iq.iqInstsIssued      1760123205                       # Number of instructions issued
system.switch_cpus_1.iq.iqNonSpecInstsAdded       108922                       # Number of non-speculative instructions added to the IQ
system.switch_cpus_1.iq.iqSquashedInstsExamined    250899809                       # Number of squashed instructions iterated over during squash; mainly for profiling
system.switch_cpus_1.iq.iqSquashedInstsIssued      2755687                       # Number of squashed instructions issued
system.switch_cpus_1.iq.iqSquashedNonSpecRemoved       108626                       # Number of squashed non-spec instructions that were removed
system.switch_cpus_1.iq.iqSquashedOperandsExamined    341646219                       # Number of squashed operands that are examined and possibly removed from graph
system.switch_cpus_1.iq.issued_per_cycle::samples    811667794                       # Number of insts issued each cycle
system.switch_cpus_1.iq.issued_per_cycle::mean     2.168527                       # Number of insts issued each cycle
system.switch_cpus_1.iq.issued_per_cycle::stdev     2.569338                       # Number of insts issued each cycle
system.switch_cpus_1.iq.issued_per_cycle::underflows            0      0.00%      0.00% # Number of insts issued each cycle
system.switch_cpus_1.iq.issued_per_cycle::0    381275188     46.97%     46.97% # Number of insts issued each cycle
system.switch_cpus_1.iq.issued_per_cycle::1     58867258      7.25%     54.23% # Number of insts issued each cycle
system.switch_cpus_1.iq.issued_per_cycle::2     65277462      8.04%     62.27% # Number of insts issued each cycle
system.switch_cpus_1.iq.issued_per_cycle::3     59565242      7.34%     69.61% # Number of insts issued each cycle
system.switch_cpus_1.iq.issued_per_cycle::4     64527369      7.95%     77.56% # Number of insts issued each cycle
system.switch_cpus_1.iq.issued_per_cycle::5     61850869      7.62%     85.18% # Number of insts issued each cycle
system.switch_cpus_1.iq.issued_per_cycle::6     53873379      6.64%     91.82% # Number of insts issued each cycle
system.switch_cpus_1.iq.issued_per_cycle::7     30047014      3.70%     95.52% # Number of insts issued each cycle
system.switch_cpus_1.iq.issued_per_cycle::8     36384013      4.48%    100.00% # Number of insts issued each cycle
system.switch_cpus_1.iq.issued_per_cycle::overflows            0      0.00%    100.00% # Number of insts issued each cycle
system.switch_cpus_1.iq.issued_per_cycle::min_value            0                       # Number of insts issued each cycle
system.switch_cpus_1.iq.issued_per_cycle::max_value            8                       # Number of insts issued each cycle
system.switch_cpus_1.iq.issued_per_cycle::total    811667794                       # Number of insts issued each cycle
system.switch_cpus_1.iq.rate                 2.168348                       # Inst issue rate
system.switch_cpus_1.iq.vec_alu_accesses            0                       # Number of vector alu accesses
system.switch_cpus_1.iq.vec_inst_queue_reads            0                       # Number of vector instruction queue reads
system.switch_cpus_1.iq.vec_inst_queue_wakeup_accesses            0                       # Number of vector instruction queue wakeup accesses
system.switch_cpus_1.iq.vec_inst_queue_writes            0                       # Number of vector instruction queue writes
system.switch_cpus_1.itb.rdAccesses                 0                       # TLB accesses on read requests
system.switch_cpus_1.itb.rdMisses                   0                       # TLB misses on read requests
system.switch_cpus_1.itb.wrAccesses         126629720                       # TLB accesses on write requests
system.switch_cpus_1.itb.wrMisses               55687                       # TLB misses on write requests
system.switch_cpus_1.memDep0.conflictingLoads     33744235                       # Number of conflicting loads.
system.switch_cpus_1.memDep0.conflictingStores      5217848                       # Number of conflicting stores.
system.switch_cpus_1.memDep0.insertedLoads    272158131                       # Number of loads inserted to the mem dependence unit.
system.switch_cpus_1.memDep0.insertedStores    100569668                       # Number of stores inserted to the mem dependence unit.
system.switch_cpus_1.misc_regfile_reads     584097035                       # number of misc regfile reads
system.switch_cpus_1.misc_regfile_writes           18                       # number of misc regfile writes
system.switch_cpus_1.numCycles              811734518                       # number of cpu cycles simulated
system.switch_cpus_1.numWorkItemsCompleted            0                       # number of work items this cpu completed
system.switch_cpus_1.numWorkItemsStarted            0                       # number of work items this cpu started
system.switch_cpus_1.rename.BlockCycles     229061275                       # Number of cycles rename is blocking
system.switch_cpus_1.rename.CommittedMaps   1776116293                       # Number of HB maps that are committed
system.switch_cpus_1.rename.IQFullEvents     66360021                       # Number of times rename has blocked due to IQ full
system.switch_cpus_1.rename.IdleCycles      120962746                       # Number of cycles rename is idle
system.switch_cpus_1.rename.LQFullEvents      1529420                       # Number of times rename has blocked due to LQ full
system.switch_cpus_1.rename.ROBFullEvents      1255096                       # Number of times rename has blocked due to ROB full
system.switch_cpus_1.rename.RenameLookups   4758204311                       # Number of register rename lookups that rename has made
system.switch_cpus_1.rename.RenamedInsts   1919134671                       # Number of instructions processed by rename
system.switch_cpus_1.rename.RenamedOperands   2161623813                       # Number of destination operands rename has renamed
system.switch_cpus_1.rename.RunCycles       257799293                       # Number of cycles rename is running
system.switch_cpus_1.rename.SQFullEvents    116586596                       # Number of times rename has blocked due to SQ full
system.switch_cpus_1.rename.SquashCycles      7915561                       # Number of cycles rename is squashing
system.switch_cpus_1.rename.UnblockCycles    195915903                       # Number of cycles rename is unblocking
system.switch_cpus_1.rename.UndoneMaps      385507476                       # Number of HB maps that are undone due to squashing
system.switch_cpus_1.rename.fp_rename_lookups   1278926390                       # Number of floating rename lookups
system.switch_cpus_1.rename.int_rename_lookups   2107916385                       # Number of integer rename lookups
system.switch_cpus_1.rename.serializeStallCycles        13011                       # count of cycles rename stalled for serializing inst
system.switch_cpus_1.rename.serializingInsts          353                       # count of serializing insts renamed
system.switch_cpus_1.rename.skidInsts       212753441                       # count of insts added to the skid buffer
system.switch_cpus_1.rename.tempSerializingInsts          355                       # count of temporary serializing insts renamed
system.switch_cpus_1.rob.rob_reads         2496522690                       # The number of ROB reads
system.switch_cpus_1.rob.rob_writes        3715171311                       # The number of ROB writes
system.switch_cpus_1.timesIdled                  4306                       # Number of times that the entire CPU went into an idle state and unscheduled itself
system.tol2bus.snoop_filter.hit_multi_requests         1695                       # Number of requests hitting in the snoop filter with multiple (>1) holders of the requested data.
system.tol2bus.snoop_filter.hit_multi_snoops            1                       # Number of snoops hitting in the snoop filter with multiple (>1) holders of the requested data.
system.tol2bus.snoop_filter.hit_single_requests      9049145                       # Number of requests hitting in the snoop filter with a single holder of the requested data.
system.tol2bus.snoop_filter.hit_single_snoops        21321                       # Number of snoops hitting in the snoop filter with a single holder of the requested data.
system.tol2bus.snoop_filter.tot_requests     17093063                       # Total number of requests made to the snoop filter.
system.tol2bus.snoop_filter.tot_snoops          21322                       # Total number of snoops made to the snoop filter.
system.tol3bus.snoop_filter.hit_multi_requests            0                       # Number of requests hitting in the snoop filter with multiple (>1) holders of the requested data.
system.tol3bus.snoop_filter.hit_multi_snoops            0                       # Number of snoops hitting in the snoop filter with multiple (>1) holders of the requested data.
system.tol3bus.snoop_filter.hit_single_requests      6652407                       # Number of requests hitting in the snoop filter with a single holder of the requested data.
system.tol3bus.snoop_filter.hit_single_snoops       589003                       # Number of snoops hitting in the snoop filter with a single holder of the requested data.
system.tol3bus.snoop_filter.tot_requests     13295083                       # Total number of requests made to the snoop filter.
system.tol3bus.snoop_filter.tot_snoops         589003                       # Total number of snoops made to the snoop filter.
system.membus.trans_dist::ReadResp              32936                       # Transaction distribution
system.membus.trans_dist::WritebackDirty       630235                       # Transaction distribution
system.membus.trans_dist::CleanEvict             7208                       # Transaction distribution
system.membus.trans_dist::UpgradeReq              642                       # Transaction distribution
system.membus.trans_dist::ReadExReq            602454                       # Transaction distribution
system.membus.trans_dist::ReadExResp           602454                       # Transaction distribution
system.membus.trans_dist::ReadSharedReq         32936                       # Transaction distribution
system.membus.pkt_count_system.l3.mem_side::system.mem_ctrls.port      1908865                       # Packet count per connected master and slave (bytes)
system.membus.pkt_count_system.l3.mem_side::total      1908865                       # Packet count per connected master and slave (bytes)
system.membus.pkt_count::total                1908865                       # Packet count per connected master and slave (bytes)
system.membus.pkt_size_system.l3.mem_side::system.mem_ctrls.port     81000000                       # Cumulative packet size per connected master and slave (bytes)
system.membus.pkt_size_system.l3.mem_side::total     81000000                       # Cumulative packet size per connected master and slave (bytes)
system.membus.pkt_size::total                81000000                       # Cumulative packet size per connected master and slave (bytes)
system.membus.snoops                                0                       # Total snoops (count)
system.membus.snoopTraffic                          0                       # Total snoop traffic (bytes)
system.membus.snoop_fanout::samples            636032                       # Request fanout histogram
system.membus.snoop_fanout::mean                    0                       # Request fanout histogram
system.membus.snoop_fanout::stdev                   0                       # Request fanout histogram
system.membus.snoop_fanout::underflows              0      0.00%      0.00% # Request fanout histogram
system.membus.snoop_fanout::0                  636032    100.00%    100.00% # Request fanout histogram
system.membus.snoop_fanout::1                       0      0.00%    100.00% # Request fanout histogram
system.membus.snoop_fanout::overflows               0      0.00%    100.00% # Request fanout histogram
system.membus.snoop_fanout::min_value               0                       # Request fanout histogram
system.membus.snoop_fanout::max_value               0                       # Request fanout histogram
system.membus.snoop_fanout::total              636032                       # Request fanout histogram
system.membus.reqLayer2.occupancy          3901834498                       # Layer occupancy (ticks)
system.membus.reqLayer2.utilization               1.0                       # Layer utilization (%)
system.membus.respLayer1.occupancy         3347818500                       # Layer occupancy (ticks)
system.membus.respLayer1.utilization              0.8                       # Layer utilization (%)
system.membus.power_state.pwrStateResidencyTicks::UNDEFINED 1661830037500                       # Cumulative time (in ticks) in various power states
system.switch_cpus_1.dtb.walker.power_state.pwrStateResidencyTicks::UNDEFINED 1661830037500                       # Cumulative time (in ticks) in various power states
system.switch_cpus_1.itb.walker.power_state.pwrStateResidencyTicks::UNDEFINED 1661830037500                       # Cumulative time (in ticks) in various power states
system.switch_cpus_1.power_state.pwrStateResidencyTicks::OFF 1661830037500                       # Cumulative time (in ticks) in various power states
system.switch_cpus.dtb.walker.power_state.pwrStateResidencyTicks::UNDEFINED 1661830037500                       # Cumulative time (in ticks) in various power states
system.switch_cpus.itb.walker.power_state.pwrStateResidencyTicks::UNDEFINED 1661830037500                       # Cumulative time (in ticks) in various power states
system.switch_cpus.power_state.numTransitions            1                       # Number of power state transitions
system.switch_cpus.power_state.pwrStateResidencyTicks::OFF 1661830037500                       # Cumulative time (in ticks) in various power states
system.tol2bus.trans_dist::ReadResp           7247743                       # Transaction distribution
system.tol2bus.trans_dist::WritebackDirty      2416192                       # Transaction distribution
system.tol2bus.trans_dist::WritebackClean        18611                       # Transaction distribution
system.tol2bus.trans_dist::CleanEvict         6811138                       # Transaction distribution
system.tol2bus.trans_dist::UpgradeReq         1007432                       # Transaction distribution
system.tol2bus.trans_dist::UpgradeResp        1007432                       # Transaction distribution
system.tol2bus.trans_dist::ReadExReq           795411                       # Transaction distribution
system.tol2bus.trans_dist::ReadExResp          795411                       # Transaction distribution
system.tol2bus.trans_dist::ReadCleanReq       7247743                       # Transaction distribution
system.tol2bus.pkt_count_system.cpu.icache.mem_side::system.l2.cpu_side        56496                       # Packet count per connected master and slave (bytes)
system.tol2bus.pkt_count_system.cpu.dcache.mem_side::system.l2.cpu_side     26086462                       # Packet count per connected master and slave (bytes)
system.tol2bus.pkt_count::total              26142958                       # Packet count per connected master and slave (bytes)
system.tol2bus.pkt_size_system.cpu.icache.mem_side::system.l2.cpu_side      2381312                       # Cumulative packet size per connected master and slave (bytes)
system.tol2bus.pkt_size_system.cpu.dcache.mem_side::system.l2.cpu_side    628887936                       # Cumulative packet size per connected master and slave (bytes)
system.tol2bus.pkt_size::total              631269248                       # Cumulative packet size per connected master and slave (bytes)
system.tol2bus.snoops                         1204155                       # Total snoops (count)
system.tol2bus.snoopTraffic                  39320000                       # Total snoop traffic (bytes)
system.tol2bus.snoop_fanout::samples         10254050                       # Request fanout histogram
system.tol2bus.snoop_fanout::mean            0.002245                       # Request fanout histogram
system.tol2bus.snoop_fanout::stdev           0.047328                       # Request fanout histogram
system.tol2bus.snoop_fanout::underflows             0      0.00%      0.00% # Request fanout histogram
system.tol2bus.snoop_fanout::0               10231033     99.78%     99.78% # Request fanout histogram
system.tol2bus.snoop_fanout::1                  23016      0.22%    100.00% # Request fanout histogram
system.tol2bus.snoop_fanout::2                      1      0.00%    100.00% # Request fanout histogram
system.tol2bus.snoop_fanout::3                      0      0.00%    100.00% # Request fanout histogram
system.tol2bus.snoop_fanout::4                      0      0.00%    100.00% # Request fanout histogram
system.tol2bus.snoop_fanout::overflows              0      0.00%    100.00% # Request fanout histogram
system.tol2bus.snoop_fanout::min_value              0                       # Request fanout histogram
system.tol2bus.snoop_fanout::max_value              2                       # Request fanout histogram
system.tol2bus.snoop_fanout::total           10254050                       # Request fanout histogram
system.tol2bus.reqLayer0.occupancy        10367651498                       # Layer occupancy (ticks)
system.tol2bus.reqLayer0.utilization              2.6                       # Layer utilization (%)
system.tol2bus.respLayer1.occupancy       12539552425                       # Layer occupancy (ticks)
system.tol2bus.respLayer1.utilization             3.1                       # Layer utilization (%)
system.tol2bus.respLayer0.occupancy          28934495                       # Layer occupancy (ticks)
system.tol2bus.respLayer0.utilization             0.0                       # Layer utilization (%)
system.tol2bus.power_state.pwrStateResidencyTicks::UNDEFINED 1661830037500                       # Cumulative time (in ticks) in various power states
system.voltage_domain.voltage                       1                       # Voltage in Volts
system.clk_domain.clock                          1000                       # Clock period in ticks
system.l2.demand_hits::.switch_cpus_1.inst        17810                       # number of demand (read+write) hits
system.l2.demand_hits::.switch_cpus_1.data      1381958                       # number of demand (read+write) hits
system.l2.demand_hits::total                  1399768                       # number of demand (read+write) hits
system.l2.overall_hits::.switch_cpus_1.inst        17810                       # number of overall hits
system.l2.overall_hits::.switch_cpus_1.data      1381958                       # number of overall hits
system.l2.overall_hits::total                 1399768                       # number of overall hits
system.l2.demand_misses::.switch_cpus_1.inst          787                       # number of demand (read+write) misses
system.l2.demand_misses::.switch_cpus_1.data      6641908                       # number of demand (read+write) misses
system.l2.demand_misses::total                6642695                       # number of demand (read+write) misses
system.l2.overall_misses::.switch_cpus_1.inst          787                       # number of overall misses
system.l2.overall_misses::.switch_cpus_1.data      6641908                       # number of overall misses
system.l2.overall_misses::total               6642695                       # number of overall misses
system.l2.demand_miss_latency::.switch_cpus_1.inst     77282000                       # number of demand (read+write) miss cycles
system.l2.demand_miss_latency::.switch_cpus_1.data 236168740500                       # number of demand (read+write) miss cycles
system.l2.demand_miss_latency::total     236246022500                       # number of demand (read+write) miss cycles
system.l2.overall_miss_latency::.switch_cpus_1.inst     77282000                       # number of overall miss cycles
system.l2.overall_miss_latency::.switch_cpus_1.data 236168740500                       # number of overall miss cycles
system.l2.overall_miss_latency::total    236246022500                       # number of overall miss cycles
system.l2.demand_accesses::.switch_cpus_1.inst        18597                       # number of demand (read+write) accesses
system.l2.demand_accesses::.switch_cpus_1.data      8023866                       # number of demand (read+write) accesses
system.l2.demand_accesses::total              8042463                       # number of demand (read+write) accesses
system.l2.overall_accesses::.switch_cpus_1.inst        18597                       # number of overall (read+write) accesses
system.l2.overall_accesses::.switch_cpus_1.data      8023866                       # number of overall (read+write) accesses
system.l2.overall_accesses::total             8042463                       # number of overall (read+write) accesses
[...]
system.cpu.dcache.demand_miss_latency::total 1082050491931                       # number of demand (read+write) miss cycles
system.cpu.dcache.overall_miss_latency::.switch_cpus.data   1078916500                       # number of overall miss cycles
system.cpu.dcache.overall_miss_latency::.switch_cpus_1.data 1080971575431                       # number of overall miss cycles
system.cpu.dcache.overall_miss_latency::total 1082050491931                       # number of overall miss cycles
system.cpu.dcache.demand_accesses::.cpu.data    368010235                       # number of demand (read+write) accesses
system.cpu.dcache.demand_accesses::.switch_cpus.data     17378400                       # number of demand (read+write) accesses
system.cpu.dcache.demand_accesses::.switch_cpus_1.data    333396437                       # number of demand (read+write) accesses
system.cpu.dcache.demand_accesses::total    718785072                       # number of demand (read+write) accesses
system.cpu.dcache.overall_accesses::.cpu.data    368010235                       # number of overall (read+write) accesses
system.cpu.dcache.overall_accesses::.switch_cpus.data     17378400                       # number of overall (read+write) accesses
system.cpu.dcache.overall_accesses::.switch_cpus_1.data    333396437                       # number of overall (read+write) accesses
system.cpu.dcache.overall_accesses::total    718785072                       # number of overall (read+write) accesses
system.cpu.dcache.demand_miss_rate::.cpu.data     0.000636                       # miss rate for demand accesses
system.cpu.dcache.demand_miss_rate::.switch_cpus.data     0.001047                       # miss rate for demand accesses
system.cpu.dcache.demand_miss_rate::.switch_cpus_1.data     0.106846                       # miss rate for demand accesses
system.cpu.dcache.demand_miss_rate::total     0.049910                       # miss rate for demand accesses
system.cpu.dcache.overall_miss_rate::.cpu.data     0.000636                       # miss rate for overall accesses
system.cpu.dcache.overall_miss_rate::.switch_cpus.data     0.001047                       # miss rate for overall accesses
system.cpu.dcache.overall_miss_rate::.switch_cpus_1.data     0.106846                       # miss rate for overall accesses
system.cpu.dcache.overall_miss_rate::total     0.049910                       # miss rate for overall accesses
system.cpu.dcache.demand_avg_miss_latency::.switch_cpus.data 59300.676047                       # average overall miss latency
system.cpu.dcache.demand_avg_miss_latency::.switch_cpus_1.data 30345.440849                       # average overall miss latency
system.cpu.dcache.demand_avg_miss_latency::total 30162.040984                       # average overall miss latency
system.cpu.dcache.overall_avg_miss_latency::.switch_cpus.data 59300.676047                       # average overall miss latency
system.cpu.dcache.overall_avg_miss_latency::.switch_cpus_1.data 30345.440849                       # average overall miss latency
system.cpu.dcache.overall_avg_miss_latency::total 30162.040984                       # average overall miss latency
system.cpu.dcache.blocked_cycles::no_mshrs      4742306                       # number of cycles access was blocked
system.cpu.dcache.blocked_cycles::no_targets          147                       # number of cycles access was blocked
system.cpu.dcache.blocked::no_mshrs            225958                       # number of cycles access was blocked
system.cpu.dcache.blocked::no_targets               5                       # number of cycles access was blocked
system.cpu.dcache.avg_blocked_cycles::no_mshrs    20.987555                       # average number of cycles each access was blocked
system.cpu.dcache.avg_blocked_cycles::no_targets    29.400000                       # average number of cycles each access was blocked
system.cpu.dcache.writebacks::.writebacks      2001135                       # number of writebacks
system.cpu.dcache.writebacks::total           2001135                       # number of writebacks
system.cpu.dcache.demand_mshr_hits::.switch_cpus_1.data     26598779                       # number of demand (read+write) MSHR hits
system.cpu.dcache.demand_mshr_hits::total     26598779                       # number of demand (read+write) MSHR hits
system.cpu.dcache.overall_mshr_hits::.switch_cpus_1.data     26598779                       # number of overall MSHR hits
system.cpu.dcache.overall_mshr_hits::total     26598779                       # number of overall MSHR hits
system.cpu.dcache.demand_mshr_misses::.switch_cpus.data        18194                       # number of demand (read+write) MSHR misses
system.cpu.dcache.demand_mshr_misses::.switch_cpus_1.data      9023428                       # number of demand (read+write) MSHR misses
system.cpu.dcache.demand_mshr_misses::total      9041622                       # number of demand (read+write) MSHR misses
system.cpu.dcache.overall_mshr_misses::.switch_cpus.data        18194                       # number of overall MSHR misses
system.cpu.dcache.overall_mshr_misses::.switch_cpus_1.data      9023428                       # number of overall MSHR misses
system.cpu.dcache.overall_mshr_misses::total      9041622                       # number of overall MSHR misses
system.cpu.dcache.demand_mshr_miss_latency::.switch_cpus.data   1060722500                       # number of demand (read+write) MSHR miss cycles
system.cpu.dcache.demand_mshr_miss_latency::.switch_cpus_1.data 270151490431                       # number of demand (read+write) MSHR miss cycles
system.cpu.dcache.demand_mshr_miss_latency::total 271212212931                       # number of demand (read+write) MSHR miss cycles
system.cpu.dcache.overall_mshr_miss_latency::.switch_cpus.data   1060722500                       # number of overall MSHR miss cycles
system.cpu.dcache.overall_mshr_miss_latency::.switch_cpus_1.data 270151490431                       # number of overall MSHR miss cycles
system.cpu.dcache.overall_mshr_miss_latency::total 271212212931                       # number of overall MSHR miss cycles
system.cpu.dcache.demand_mshr_miss_rate::.switch_cpus.data     0.001047                       # mshr miss rate for demand accesses
system.cpu.dcache.demand_mshr_miss_rate::.switch_cpus_1.data     0.027065                       # mshr miss rate for demand accesses
system.cpu.dcache.demand_mshr_miss_rate::total     0.012579                       # mshr miss rate for demand accesses
system.cpu.dcache.overall_mshr_miss_rate::.switch_cpus.data     0.001047                       # mshr miss rate for overall accesses
system.cpu.dcache.overall_mshr_miss_rate::.switch_cpus_1.data     0.027065                       # mshr miss rate for overall accesses
system.cpu.dcache.overall_mshr_miss_rate::total     0.012579                       # mshr miss rate for overall accesses
system.cpu.dcache.demand_avg_mshr_miss_latency::.switch_cpus.data 58300.676047                       # average overall mshr miss latency
system.cpu.dcache.demand_avg_mshr_miss_latency::.switch_cpus_1.data 29938.897992                       # average overall mshr miss latency
system.cpu.dcache.demand_avg_mshr_miss_latency::total 29995.968968                       # average overall mshr miss latency
system.cpu.dcache.overall_avg_mshr_miss_latency::.switch_cpus.data 58300.676047                       # average overall mshr miss latency
system.cpu.dcache.overall_avg_mshr_miss_latency::.switch_cpus_1.data 29938.897992                       # average overall mshr miss latency
system.cpu.dcache.overall_avg_mshr_miss_latency::total 29995.968968                       # average overall mshr miss latency
system.cpu.dcache.replacements                8256370                       # number of replacements
system.cpu.dcache.ReadReq_hits::.cpu.data    231033982                       # number of ReadReq hits
system.cpu.dcache.ReadReq_hits::.switch_cpus.data     11297718                       # number of ReadReq hits
system.cpu.dcache.ReadReq_hits::.switch_cpus_1.data    210300921                       # number of ReadReq hits
system.cpu.dcache.ReadReq_hits::total       452632621                       # number of ReadReq hits
system.cpu.dcache.ReadReq_misses::.cpu.data        49278                       # number of ReadReq misses
system.cpu.dcache.ReadReq_misses::.switch_cpus.data         4011                       # number of ReadReq misses
system.cpu.dcache.ReadReq_misses::.switch_cpus_1.data     33819364                       # number of ReadReq misses
system.cpu.dcache.ReadReq_misses::total      33872653                       # number of ReadReq misses
system.cpu.dcache.ReadReq_miss_latency::.switch_cpus.data     80739500                       # number of ReadReq miss cycles
system.cpu.dcache.ReadReq_miss_latency::.switch_cpus_1.data 1009971945000                       # number of ReadReq miss cycles
system.cpu.dcache.ReadReq_miss_latency::total 1010052684500                       # number of ReadReq miss cycles
system.cpu.dcache.ReadReq_accesses::.cpu.data    231083260                       # number of ReadReq accesses(hits+misses)
system.cpu.dcache.ReadReq_accesses::.switch_cpus.data     11301729                       # number of ReadReq accesses(hits+misses)
system.cpu.dcache.ReadReq_accesses::.switch_cpus_1.data    244120285                       # number of ReadReq accesses(hits+misses)
system.cpu.dcache.ReadReq_accesses::total    486505274                       # number of ReadReq accesses(hits+misses)
system.cpu.dcache.ReadReq_miss_rate::.cpu.data     0.000213                       # miss rate for ReadReq accesses
system.cpu.dcache.ReadReq_miss_rate::.switch_cpus.data     0.000355                       # miss rate for ReadReq accesses
system.cpu.dcache.ReadReq_miss_rate::.switch_cpus_1.data     0.138536                       # miss rate for ReadReq accesses
system.cpu.dcache.ReadReq_miss_rate::total     0.069624                       # miss rate for ReadReq accesses
system.cpu.dcache.ReadReq_avg_miss_latency::.switch_cpus.data 20129.518823                       # average ReadReq miss latency
system.cpu.dcache.ReadReq_avg_miss_latency::.switch_cpus_1.data 29863.717869                       # average ReadReq miss latency
system.cpu.dcache.ReadReq_avg_miss_latency::total 29819.119409                       # average ReadReq miss latency
system.cpu.dcache.ReadReq_mshr_hits::.switch_cpus_1.data     26590908                       # number of ReadReq MSHR hits
system.cpu.dcache.ReadReq_mshr_hits::total     26590908                       # number of ReadReq MSHR hits
system.cpu.dcache.ReadReq_mshr_misses::.switch_cpus.data         4011                       # number of ReadReq MSHR misses
system.cpu.dcache.ReadReq_mshr_misses::.switch_cpus_1.data      7228456                       # number of ReadReq MSHR misses
system.cpu.dcache.ReadReq_mshr_misses::total      7232467                       # number of ReadReq MSHR misses
system.cpu.dcache.ReadReq_mshr_miss_latency::.switch_cpus.data     76728500                       # number of ReadReq MSHR miss cycles
system.cpu.dcache.ReadReq_mshr_miss_latency::.switch_cpus_1.data 200954715500                       # number of ReadReq MSHR miss cycles
system.cpu.dcache.ReadReq_mshr_miss_latency::total 201031444000                       # number of ReadReq MSHR miss cycles
system.cpu.dcache.ReadReq_mshr_miss_rate::.switch_cpus.data     0.000355                       # mshr miss rate for ReadReq accesses
system.cpu.dcache.ReadReq_mshr_miss_rate::.switch_cpus_1.data     0.029610                       # mshr miss rate for ReadReq accesses
system.cpu.dcache.ReadReq_mshr_miss_rate::total     0.014866                       # mshr miss rate for ReadReq accesses
system.cpu.dcache.ReadReq_avg_mshr_miss_latency::.switch_cpus.data 19129.518823                       # average ReadReq mshr miss latency
system.cpu.dcache.ReadReq_avg_mshr_miss_latency::.switch_cpus_1.data 27800.503386                       # average ReadReq mshr miss latency
system.cpu.dcache.ReadReq_avg_mshr_miss_latency::total 27795.694609                       # average ReadReq mshr miss latency
system.cpu.dcache.WriteReq_hits::.cpu.data    136742076                       # number of WriteReq hits
system.cpu.dcache.WriteReq_hits::.switch_cpus.data      6062488                       # number of WriteReq hits
system.cpu.dcache.WriteReq_hits::.switch_cpus_1.data     87473309                       # number of WriteReq hits
system.cpu.dcache.WriteReq_hits::total      230277873                       # number of WriteReq hits
system.cpu.dcache.WriteReq_misses::.cpu.data       184899                       # number of WriteReq misses
system.cpu.dcache.WriteReq_misses::.switch_cpus.data        14183                       # number of WriteReq misses
system.cpu.dcache.WriteReq_misses::.switch_cpus_1.data      1802843                       # number of WriteReq misses
system.cpu.dcache.WriteReq_misses::total      2001925                       # number of WriteReq misses
system.cpu.dcache.WriteReq_miss_latency::.switch_cpus.data    998177000                       # number of WriteReq miss cycles
system.cpu.dcache.WriteReq_miss_latency::.switch_cpus_1.data  70999630431                       # number of WriteReq miss cycles
system.cpu.dcache.WriteReq_miss_latency::total  71997807431                       # number of WriteReq miss cycles
system.cpu.dcache.WriteReq_accesses::.cpu.data    136926975                       # number of WriteReq accesses(hits+misses)
system.cpu.dcache.WriteReq_accesses::.switch_cpus.data      6076671                       # number of WriteReq accesses(hits+misses)
system.cpu.dcache.WriteReq_accesses::.switch_cpus_1.data     89276152                       # number of WriteReq accesses(hits+misses)
system.cpu.dcache.WriteReq_accesses::total    232279798                       # number of WriteReq accesses(hits+misses)
system.cpu.dcache.WriteReq_miss_rate::.cpu.data     0.001350                       # miss rate for WriteReq accesses
system.cpu.dcache.WriteReq_miss_rate::.switch_cpus.data     0.002334                       # miss rate for WriteReq accesses
system.cpu.dcache.WriteReq_miss_rate::.switch_cpus_1.data     0.020194                       # miss rate for WriteReq accesses
system.cpu.dcache.WriteReq_miss_rate::total     0.008619                       # miss rate for WriteReq accesses
system.cpu.dcache.WriteReq_avg_miss_latency::.switch_cpus.data 70378.410773                       # average WriteReq miss latency
system.cpu.dcache.WriteReq_avg_miss_latency::.switch_cpus_1.data 39382.037388                       # average WriteReq miss latency
system.cpu.dcache.WriteReq_avg_miss_latency::total 35964.288088                       # average WriteReq miss latency
system.cpu.dcache.WriteReq_mshr_hits::.switch_cpus_1.data         7871                       # number of WriteReq MSHR hits
system.cpu.dcache.WriteReq_mshr_hits::total         7871                       # number of WriteReq MSHR hits
system.cpu.dcache.WriteReq_mshr_misses::.switch_cpus.data        14183                       # number of WriteReq MSHR misses
system.cpu.dcache.WriteReq_mshr_misses::.switch_cpus_1.data      1794972                       # number of WriteReq MSHR misses
system.cpu.dcache.WriteReq_mshr_misses::total      1809155                       # number of WriteReq MSHR misses
system.cpu.dcache.WriteReq_mshr_miss_latency::.switch_cpus.data    983994000                       # number of WriteReq MSHR miss cycles
system.cpu.dcache.WriteReq_mshr_miss_latency::.switch_cpus_1.data  69196774931                       # number of WriteReq MSHR miss cycles
system.cpu.dcache.WriteReq_mshr_miss_latency::total  70180768931                       # number of WriteReq MSHR miss cycles
system.cpu.dcache.WriteReq_mshr_miss_rate::.switch_cpus.data     0.002334                       # mshr miss rate for WriteReq accesses
system.cpu.dcache.WriteReq_mshr_miss_rate::.switch_cpus_1.data     0.020106                       # mshr miss rate for WriteReq accesses
system.cpu.dcache.WriteReq_mshr_miss_rate::total     0.007789                       # mshr miss rate for WriteReq accesses
system.cpu.dcache.WriteReq_avg_mshr_miss_latency::.switch_cpus.data 69378.410773                       # average WriteReq mshr miss latency
system.cpu.dcache.WriteReq_avg_mshr_miss_latency::.switch_cpus_1.data 38550.336680                       # average WriteReq mshr miss latency
system.cpu.dcache.WriteReq_avg_mshr_miss_latency::total 38792.015571                       # average WriteReq mshr miss latency
system.cpu.dcache.power_state.pwrStateResidencyTicks::UNDEFINED 1661830037500                       # Cumulative time (in ticks) in various power states
system.cpu.dcache.tags.tagsinuse           511.994162                       # Cycle average of tags in use
system.cpu.dcache.tags.total_refs           692585757                       # Total number of references to valid blocks.
system.cpu.dcache.tags.sampled_refs           8256882                       # Sample count of references to valid blocks.
system.cpu.dcache.tags.avg_refs             83.879818                       # Average number of references to valid blocks.
system.cpu.dcache.tags.warmup_cycle              1500                       # Cycle when the warmup percentage was hit.
system.cpu.dcache.tags.occ_blocks::.cpu.data   361.630084                       # Average occupied blocks per requestor
system.cpu.dcache.tags.occ_blocks::.switch_cpus.data    25.718067                       # Average occupied blocks per requestor
system.cpu.dcache.tags.occ_blocks::.switch_cpus_1.data   124.646010                       # Average occupied blocks per requestor
system.cpu.dcache.tags.occ_percent::.cpu.data     0.706309                       # Average percentage of cache occupancy
system.cpu.dcache.tags.occ_percent::.switch_cpus.data     0.050231                       # Average percentage of cache occupancy
system.cpu.dcache.tags.occ_percent::.switch_cpus_1.data     0.243449                       # Average percentage of cache occupancy
system.cpu.dcache.tags.occ_percent::total     0.999989                       # Average percentage of cache occupancy
system.cpu.dcache.tags.occ_task_id_blocks::1024          512                       # Occupied blocks per task id
system.cpu.dcache.tags.age_task_id_blocks_1024::0          214                       # Occupied blocks per task id
system.cpu.dcache.tags.age_task_id_blocks_1024::1           94                       # Occupied blocks per task id
system.cpu.dcache.tags.age_task_id_blocks_1024::2           78                       # Occupied blocks per task id
system.cpu.dcache.tags.age_task_id_blocks_1024::3          123                       # Occupied blocks per task id
system.cpu.dcache.tags.age_task_id_blocks_1024::4            3                       # Occupied blocks per task id
system.cpu.dcache.tags.occ_task_id_percent::1024            1                       # Percentage of cache occupancy per task id
system.cpu.dcache.tags.tag_accesses        2883397170                       # Number of tag accesses
system.cpu.dcache.tags.data_accesses       2883397170                       # Number of data accesses
system.cpu.dcache.tags.power_state.pwrStateResidencyTicks::UNDEFINED 1661830037500                       # Cumulative time (in ticks) in various power states
system.cpu.power_state.numTransitions               2                       # Number of power state transitions
system.cpu.power_state.pwrStateResidencyTicks::ON 1168016811000                       # Cumulative time (in ticks) in various power states
system.cpu.power_state.pwrStateResidencyTicks::OFF 493813226500                       # Cumulative time (in ticks) in various power states

---------- End Simulation Statistics   ----------
