
---------- Begin Simulation Statistics ----------
final_tick                               5455503338000                       # Number of ticks from beginning of simulation (restored from checkpoints and never reset)
host_inst_rate                                  43406                       # Simulator instruction rate (inst/s)
host_mem_usage                                4544128                       # Number of bytes of host memory used
host_op_rate                                    77896                       # Simulator op (including micro ops) rate (op/s)
host_seconds                                 47228.21                       # Real time elapsed on the host
host_tick_rate                               82607292                       # Simulator tick rate (ticks/s)
sim_freq                                 1000000000000                       # Frequency of simulated ticks
sim_insts                                  2050000003                       # Number of instructions simulated
sim_ops                                    3678885925                       # Number of ops (including micro ops) simulated
sim_seconds                                  3.901394                       # Number of seconds simulated
sim_ticks                                3901394306500                       # Number of ticks simulated
system.cpu.committedInsts                           0                       # Number of instructions committed
system.cpu.committedOps                             0                       # Number of ops (including micro ops) committed
system.cpu.dtb.rdAccesses                           0                       # TLB accesses on read requests
system.cpu.dtb.rdMisses                             0                       # TLB misses on read requests
system.cpu.dtb.wrAccesses                           0                       # TLB accesses on write requests
system.cpu.dtb.wrMisses                             0                       # TLB misses on write requests
system.cpu.idle_fraction                            0                       # Percentage of idle cycles
system.cpu.itb.rdAccesses                           0                       # TLB accesses on read requests
system.cpu.itb.rdMisses                             0                       # TLB misses on read requests
system.cpu.itb.wrAccesses                           0                       # TLB accesses on write requests
system.cpu.itb.wrMisses                             0                       # TLB misses on write requests
system.cpu.not_idle_fraction                        1                       # Percentage of non-idle cycles
system.cpu.numCycles                                0                       # number of cpu cycles simulated
system.cpu.numWorkItemsCompleted                    0                       # number of work items this cpu completed
system.cpu.numWorkItemsStarted                      0                       # number of work items this cpu started
system.cpu.num_busy_cycles                          0                       # Number of busy cycles
system.cpu.num_conditional_control_insts            0                       # number of instructions that are conditional controls
system.cpu.num_fp_alu_accesses                      0                       # Number of float alu accesses
system.cpu.num_fp_insts                             0                       # number of float instructions
system.cpu.num_fp_register_reads                    0                       # number of times the floating registers were read
system.cpu.num_fp_register_writes                   0                       # number of times the floating registers were written
system.cpu.num_func_calls                           0                       # number of times a function call or return occured
system.cpu.num_idle_cycles                          0                       # Number of idle cycles
system.cpu.num_int_alu_accesses                     0                       # Number of integer alu accesses
system.cpu.num_int_insts                            0                       # number of integer instructions
system.cpu.num_int_register_reads                   0                       # number of times the integer registers were read
system.cpu.num_int_register_writes                  0                       # number of times the integer registers were written
system.cpu.num_load_insts                           0                       # Number of load instructions
system.cpu.num_mem_refs                             0                       # number of memory refs
system.cpu.num_store_insts                          0                       # Number of store instructions
system.cpu.num_vec_alu_accesses                     0                       # Number of vector alu accesses
system.cpu.num_vec_insts                            0                       # number of vector instructions
system.cpu.num_vec_register_reads                   0                       # number of times the vector registers were read
system.cpu.num_vec_register_writes                  0                       # number of times the vector registers were written
system.cpu.op_class::No_OpClass                     0                       # Class of executed instruction
system.cpu.op_class::IntAlu                         0                       # Class of executed instruction
system.cpu.op_class::IntMult                        0                       # Class of executed instruction
system.cpu.op_class::IntDiv                         0                       # Class of executed instruction
system.cpu.op_class::FloatAdd                       0                       # Class of executed instruction
system.cpu.op_class::FloatCmp                       0                       # Class of executed instruction
system.cpu.op_class::FloatCvt                       0                       # Class of executed instruction
system.cpu.op_class::FloatMult                      0                       # Class of executed instruction
system.cpu.op_class::FloatMultAcc                   0                       # Class of executed instruction
system.cpu.op_class::FloatDiv                       0                       # Class of executed instruction
system.cpu.op_class::FloatMisc                      0                       # Class of executed instruction
system.cpu.op_class::FloatSqrt                      0                       # Class of executed instruction
system.cpu.op_class::SimdAdd                        0                       # Class of executed instruction
system.cpu.op_class::SimdAddAcc                     0                       # Class of executed instruction
system.cpu.op_class::SimdAlu                        0                       # Class of executed instruction
system.cpu.op_class::SimdCmp                        0                       # Class of executed instruction
system.cpu.op_class::SimdCvt                        0                       # Class of executed instruction
system.cpu.op_class::SimdMisc                       0                       # Class of executed instruction
system.cpu.op_class::SimdMult                       0                       # Class of executed instruction
system.cpu.op_class::SimdMultAcc                    0                       # Class of executed instruction
system.cpu.op_class::SimdShift                      0                       # Class of executed instruction
system.cpu.op_class::SimdShiftAcc                   0                       # Class of executed instruction
system.cpu.op_class::SimdDiv                        0                       # Class of executed instruction
system.cpu.op_class::SimdSqrt                       0                       # Class of executed instruction
system.cpu.op_class::SimdFloatAdd                   0                       # Class of executed instruction
system.cpu.op_class::SimdFloatAlu                   0                       # Class of executed instruction
system.cpu.op_class::SimdFloatCmp                   0                       # Class of executed instruction
system.cpu.op_class::SimdFloatCvt                   0                       # Class of executed instruction
system.cpu.op_class::SimdFloatDiv                   0                       # Class of executed instruction
system.cpu.op_class::SimdFloatMisc                  0                       # Class of executed instruction
system.cpu.op_class::SimdFloatMult                  0                       # Class of executed instruction
system.cpu.op_class::SimdFloatMultAcc               0                       # Class of executed instruction
system.cpu.op_class::SimdFloatSqrt                  0                       # Class of executed instruction
system.cpu.op_class::SimdReduceAdd                  0                       # Class of executed instruction
system.cpu.op_class::SimdReduceAlu                  0                       # Class of executed instruction
system.cpu.op_class::SimdReduceCmp                  0                       # Class of executed instruction
system.cpu.op_class::SimdFloatReduceAdd             0                       # Class of executed instruction
system.cpu.op_class::SimdFloatReduceCmp             0                       # Class of executed instruction
system.cpu.op_class::SimdAes                        0                       # Class of executed instruction
system.cpu.op_class::SimdAesMix                     0                       # Class of executed instruction
system.cpu.op_class::SimdSha1Hash                   0                       # Class of executed instruction
system.cpu.op_class::SimdSha1Hash2                  0                       # Class of executed instruction
system.cpu.op_class::SimdSha256Hash                 0                       # Class of executed instruction
system.cpu.op_class::SimdSha256Hash2                0                       # Class of executed instruction
system.cpu.op_class::SimdShaSigma2                  0                       # Class of executed instruction
system.cpu.op_class::SimdShaSigma3                  0                       # Class of executed instruction
system.cpu.op_class::SimdPredAlu                    0                       # Class of executed instruction
system.cpu.op_class::MemRead                        0                       # Class of executed instruction
system.cpu.op_class::MemWrite                       0                       # Class of executed instruction
system.cpu.op_class::FloatMemRead                   0                       # Class of executed instruction
system.cpu.op_class::FloatMemWrite                  0                       # Class of executed instruction
system.cpu.op_class::IprAccess                      0                       # Class of executed instruction
system.cpu.op_class::InstPrefetch                   0                       # Class of executed instruction
system.cpu.op_class::total                          0                       # Class of executed instruction
system.cpu.workload.numSyscalls                     0                       # Number of system calls
system.membus.snoop_filter.hit_multi_requests            0                       # Number of requests hitting in the snoop filter with multiple (>1) holders of the requested data.
system.membus.snoop_filter.hit_multi_snoops            0                       # Number of snoops hitting in the snoop filter with multiple (>1) holders of the requested data.
system.membus.snoop_filter.hit_single_requests     62302470                       # Number of requests hitting in the snoop filter with a single holder of the requested data.
system.membus.snoop_filter.hit_single_snoops            0                       # Number of snoops hitting in the snoop filter with a single holder of the requested data.
system.membus.snoop_filter.tot_requests     124604660                       # Total number of requests made to the snoop filter.
system.membus.snoop_filter.tot_snoops               0                       # Total number of snoops made to the snoop filter.
system.switch_cpus.committedInsts                   0                       # Number of instructions committed
system.switch_cpus.committedOps                     0                       # Number of ops (including micro ops) committed
system.switch_cpus.dtb.rdAccesses                   0                       # TLB accesses on read requests
system.switch_cpus.dtb.rdMisses                     0                       # TLB misses on read requests
system.switch_cpus.dtb.wrAccesses                   0                       # TLB accesses on write requests
system.switch_cpus.dtb.wrMisses                     0                       # TLB misses on write requests
system.switch_cpus.idle_fraction                    0                       # Percentage of idle cycles
system.switch_cpus.itb.rdAccesses                   0                       # TLB accesses on read requests
system.switch_cpus.itb.rdMisses                     0                       # TLB misses on read requests
system.switch_cpus.itb.wrAccesses                   0                       # TLB accesses on write requests
system.switch_cpus.itb.wrMisses                     0                       # TLB misses on write requests
system.switch_cpus.not_idle_fraction                1                       # Percentage of non-idle cycles
system.switch_cpus.numCycles                        0                       # number of cpu cycles simulated
system.switch_cpus.numWorkItemsCompleted            0                       # number of work items this cpu completed
system.switch_cpus.numWorkItemsStarted              0                       # number of work items this cpu started
system.switch_cpus.num_busy_cycles                  0                       # Number of busy cycles
system.switch_cpus.num_conditional_control_insts            0                       # number of instructions that are conditional controls
system.switch_cpus.num_fp_alu_accesses              0                       # Number of float alu accesses
system.switch_cpus.num_fp_insts                     0                       # number of float instructions
system.switch_cpus.num_fp_register_reads            0                       # number of times the floating registers were read
system.switch_cpus.num_fp_register_writes            0                       # number of times the floating registers were written
system.switch_cpus.num_func_calls                   0                       # number of times a function call or return occured
system.switch_cpus.num_idle_cycles                  0                       # Number of idle cycles
system.switch_cpus.num_int_alu_accesses             0                       # Number of integer alu accesses
system.switch_cpus.num_int_insts                    0                       # number of integer instructions
system.switch_cpus.num_int_register_reads            0                       # number of times the integer registers were read
system.switch_cpus.num_int_register_writes            0                       # number of times the integer registers were written
system.switch_cpus.num_load_insts                   0                       # Number of load instructions
system.switch_cpus.num_mem_refs                     0                       # number of memory refs
system.switch_cpus.num_store_insts                  0                       # Number of store instructions
system.switch_cpus.num_vec_alu_accesses             0                       # Number of vector alu accesses
system.switch_cpus.num_vec_insts                    0                       # number of vector instructions
system.switch_cpus.num_vec_register_reads            0                       # number of times the vector registers were read
system.switch_cpus.num_vec_register_writes            0                       # number of times the vector registers were written
system.switch_cpus.op_class::No_OpClass             0                       # Class of executed instruction
system.switch_cpus.op_class::IntAlu                 0                       # Class of executed instruction
system.switch_cpus.op_class::IntMult                0                       # Class of executed instruction
system.switch_cpus.op_class::IntDiv                 0                       # Class of executed instruction
system.switch_cpus.op_class::FloatAdd               0                       # Class of executed instruction
system.switch_cpus.op_class::FloatCmp               0                       # Class of executed instruction
system.switch_cpus.op_class::FloatCvt               0                       # Class of executed instruction
system.switch_cpus.op_class::FloatMult              0                       # Class of executed instruction
system.switch_cpus.op_class::FloatMultAcc            0                       # Class of executed instruction
system.switch_cpus.op_class::FloatDiv               0                       # Class of executed instruction
system.switch_cpus.op_class::FloatMisc              0                       # Class of executed instruction
system.switch_cpus.op_class::FloatSqrt              0                       # Class of executed instruction
system.switch_cpus.op_class::SimdAdd                0                       # Class of executed instruction
system.switch_cpus.op_class::SimdAddAcc             0                       # Class of executed instruction
system.switch_cpus.op_class::SimdAlu                0                       # Class of executed instruction
system.switch_cpus.op_class::SimdCmp                0                       # Class of executed instruction
system.switch_cpus.op_class::SimdCvt                0                       # Class of executed instruction
system.switch_cpus.op_class::SimdMisc               0                       # Class of executed instruction
system.switch_cpus.op_class::SimdMult               0                       # Class of executed instruction
system.switch_cpus.op_class::SimdMultAcc            0                       # Class of executed instruction
system.switch_cpus.op_class::SimdShift              0                       # Class of executed instruction
system.switch_cpus.op_class::SimdShiftAcc            0                       # Class of executed instruction
system.switch_cpus.op_class::SimdDiv                0                       # Class of executed instruction
system.switch_cpus.op_class::SimdSqrt               0                       # Class of executed instruction
system.switch_cpus.op_class::SimdFloatAdd            0                       # Class of executed instruction
system.switch_cpus.op_class::SimdFloatAlu            0                       # Class of executed instruction
system.switch_cpus.op_class::SimdFloatCmp            0                       # Class of executed instruction
system.switch_cpus.op_class::SimdFloatCvt            0                       # Class of executed instruction
system.switch_cpus.op_class::SimdFloatDiv            0                       # Class of executed instruction
system.switch_cpus.op_class::SimdFloatMisc            0                       # Class of executed instruction
system.switch_cpus.op_class::SimdFloatMult            0                       # Class of executed instruction
system.switch_cpus.op_class::SimdFloatMultAcc            0                       # Class of executed instruction
system.switch_cpus.op_class::SimdFloatSqrt            0                       # Class of executed instruction
system.switch_cpus.op_class::SimdReduceAdd            0                       # Class of executed instruction
system.switch_cpus.op_class::SimdReduceAlu            0                       # Class of executed instruction
system.switch_cpus.op_class::SimdReduceCmp            0                       # Class of executed instruction
system.switch_cpus.op_class::SimdFloatReduceAdd            0                       # Class of executed instruction
system.switch_cpus.op_class::SimdFloatReduceCmp            0                       # Class of executed instruction
system.switch_cpus.op_class::SimdAes                0                       # Class of executed instruction
system.switch_cpus.op_class::SimdAesMix             0                       # Class of executed instruction
system.switch_cpus.op_class::SimdSha1Hash            0                       # Class of executed instruction
system.switch_cpus.op_class::SimdSha1Hash2            0                       # Class of executed instruction
system.switch_cpus.op_class::SimdSha256Hash            0                       # Class of executed instruction
system.switch_cpus.op_class::SimdSha256Hash2            0                       # Class of executed instruction
system.switch_cpus.op_class::SimdShaSigma2            0                       # Class of executed instruction
system.switch_cpus.op_class::SimdShaSigma3            0                       # Class of executed instruction
system.switch_cpus.op_class::SimdPredAlu            0                       # Class of executed instruction
system.switch_cpus.op_class::MemRead                0                       # Class of executed instruction
system.switch_cpus.op_class::MemWrite               0                       # Class of executed instruction
system.switch_cpus.op_class::FloatMemRead            0                       # Class of executed instruction
system.switch_cpus.op_class::FloatMemWrite            0                       # Class of executed instruction
system.switch_cpus.op_class::IprAccess              0                       # Class of executed instruction
system.switch_cpus.op_class::InstPrefetch            0                       # Class of executed instruction
system.switch_cpus.op_class::total                  0                       # Class of executed instruction
system.switch_cpus_1.branchPred.BTBCorrect            0                       # Number of correct BTB predictions (this stat may not work properly.
system.switch_cpus_1.branchPred.BTBHitPct          nan                       # BTB Hit Percentage
system.switch_cpus_1.branchPred.BTBHits             0                       # Number of BTB hits
system.switch_cpus_1.branchPred.BTBLookups            0                       # Number of BTB lookups
system.switch_cpus_1.branchPred.RASInCorrect           58                       # Number of incorrect RAS predictions.
system.switch_cpus_1.branchPred.condIncorrect     84200128                       # Number of conditional branches incorrect
system.switch_cpus_1.branchPred.condPredicted   1043502422                       # Number of conditional branches predicted
system.switch_cpus_1.branchPred.indirectHits    280293074                       # Number of indirect target hits.
system.switch_cpus_1.branchPred.indirectLookups    569728260                       # Number of indirect predictor lookups.
system.switch_cpus_1.branchPred.indirectMisses    289435186                       # Number of indirect misses.
system.switch_cpus_1.branchPred.lookups    1124723860                       # Number of BP lookups
system.switch_cpus_1.branchPred.usedRAS      47514244                       # Number of times the RAS was used to get a target.
system.switch_cpus_1.branchPredindirectMispredicted     39457759                       # Number of mispredicted indirect branches.
system.switch_cpus_1.cc_regfile_reads      2116884950                       # number of cc regfile reads
system.switch_cpus_1.cc_regfile_writes     1360633875                       # number of cc regfile writes
system.switch_cpus_1.commit.amos                    0                       # Number of atomic instructions committed
system.switch_cpus_1.commit.branchMispredicts     84200135                       # The number of times a branch was mispredicted
system.switch_cpus_1.commit.branches        255668228                       # Number of branches committed
system.switch_cpus_1.commit.bw_lim_events     79079438                       # number cycles where commit BW limit reached
system.switch_cpus_1.commit.commitSquashedInsts   3627449612                       # The number of squashed insts skipped by commit
system.switch_cpus_1.commit.committedInsts   1000000001                       # Number of instructions committed
system.switch_cpus_1.commit.committedOps   1749224775                       # Number of ops (including micro ops) committed
system.switch_cpus_1.commit.committed_per_cycle::samples   7209588225                       # Number of insts commited each cycle
system.switch_cpus_1.commit.committed_per_cycle::mean     0.242625                       # Number of insts commited each cycle
system.switch_cpus_1.commit.committed_per_cycle::stdev     1.086991                       # Number of insts commited each cycle
system.switch_cpus_1.commit.committed_per_cycle::underflows            0      0.00%      0.00% # Number of insts commited each cycle
system.switch_cpus_1.commit.committed_per_cycle::0   6676957885     92.61%     92.61% # Number of insts commited each cycle
system.switch_cpus_1.commit.committed_per_cycle::1    191294107      2.65%     95.27% # Number of insts commited each cycle
system.switch_cpus_1.commit.committed_per_cycle::2     52669410      0.73%     96.00% # Number of insts commited each cycle
system.switch_cpus_1.commit.committed_per_cycle::3    112529328      1.56%     97.56% # Number of insts commited each cycle
system.switch_cpus_1.commit.committed_per_cycle::4     32344567      0.45%     98.01% # Number of insts commited each cycle
system.switch_cpus_1.commit.committed_per_cycle::5     39324057      0.55%     98.55% # Number of insts commited each cycle
system.switch_cpus_1.commit.committed_per_cycle::6     21356224      0.30%     98.85% # Number of insts commited each cycle
system.switch_cpus_1.commit.committed_per_cycle::7      4033209      0.06%     98.90% # Number of insts commited each cycle
system.switch_cpus_1.commit.committed_per_cycle::8     79079438      1.10%    100.00% # Number of insts commited each cycle
system.switch_cpus_1.commit.committed_per_cycle::overflows            0      0.00%    100.00% # Number of insts commited each cycle
system.switch_cpus_1.commit.committed_per_cycle::min_value            0                       # Number of insts commited each cycle
system.switch_cpus_1.commit.committed_per_cycle::max_value            8                       # Number of insts commited each cycle
system.switch_cpus_1.commit.committed_per_cycle::total   7209588225                       # Number of insts commited each cycle
system.switch_cpus_1.commit.fp_insts                0                       # Number of committed floating point instructions.
system.switch_cpus_1.commit.function_calls      1517455                       # Number of function calls committed.
system.switch_cpus_1.commit.int_insts      1743711707                       # Number of committed integer instructions.
system.switch_cpus_1.commit.loads           368401121                       # Number of loads committed
system.switch_cpus_1.commit.membars                 0                       # Number of memory barriers committed
system.switch_cpus_1.commit.op_class_0::No_OpClass      3172259      0.18%      0.18% # Class of committed instruction
system.switch_cpus_1.commit.op_class_0::IntAlu   1306730757     74.70%     74.88% # Class of committed instruction
system.switch_cpus_1.commit.op_class_0::IntMult        52880      0.00%     74.89% # Class of committed instruction
system.switch_cpus_1.commit.op_class_0::IntDiv            0      0.00%     74.89% # Class of committed instruction
system.switch_cpus_1.commit.op_class_0::FloatAdd            0      0.00%     74.89% # Class of committed instruction
system.switch_cpus_1.commit.op_class_0::FloatCmp            0      0.00%     74.89% # Class of committed instruction
system.switch_cpus_1.commit.op_class_0::FloatCvt            0      0.00%     74.89% # Class of committed instruction
system.switch_cpus_1.commit.op_class_0::FloatMult            0      0.00%     74.89% # Class of committed instruction
system.switch_cpus_1.commit.op_class_0::FloatMultAcc            0      0.00%     74.89% # Class of committed instruction
system.switch_cpus_1.commit.op_class_0::FloatDiv            0      0.00%     74.89% # Class of committed instruction
system.switch_cpus_1.commit.op_class_0::FloatMisc            0      0.00%     74.89% # Class of committed instruction
system.switch_cpus_1.commit.op_class_0::FloatSqrt            0      0.00%     74.89% # Class of committed instruction
system.switch_cpus_1.commit.op_class_0::SimdAdd            0      0.00%     74.89% # Class of committed instruction
system.switch_cpus_1.commit.op_class_0::SimdAddAcc            0      0.00%     74.89% # Class of committed instruction
system.switch_cpus_1.commit.op_class_0::SimdAlu            0      0.00%     74.89% # Class of committed instruction
system.switch_cpus_1.commit.op_class_0::SimdCmp            0      0.00%     74.89% # Class of committed instruction
system.switch_cpus_1.commit.op_class_0::SimdCvt            0      0.00%     74.89% # Class of committed instruction
system.switch_cpus_1.commit.op_class_0::SimdMisc            0      0.00%     74.89% # Class of committed instruction
system.switch_cpus_1.commit.op_class_0::SimdMult            0      0.00%     74.89% # Class of committed instruction
system.switch_cpus_1.commit.op_class_0::SimdMultAcc            0      0.00%     74.89% # Class of committed instruction
system.switch_cpus_1.commit.op_class_0::SimdShift            0      0.00%     74.89% # Class of committed instruction
system.switch_cpus_1.commit.op_class_0::SimdShiftAcc            0      0.00%     74.89% # Class of committed instruction
system.switch_cpus_1.commit.op_class_0::SimdDiv            0      0.00%     74.89% # Class of committed instruction
system.switch_cpus_1.commit.op_class_0::SimdSqrt            0      0.00%     74.89% # Class of committed instruction
system.switch_cpus_1.commit.op_class_0::SimdFloatAdd            0      0.00%     74.89% # Class of committed instruction
system.switch_cpus_1.commit.op_class_0::SimdFloatAlu            0      0.00%     74.89% # Class of committed instruction
system.switch_cpus_1.commit.op_class_0::SimdFloatCmp            0      0.00%     74.89% # Class of committed instruction
system.switch_cpus_1.commit.op_class_0::SimdFloatCvt            0      0.00%     74.89% # Class of committed instruction
system.switch_cpus_1.commit.op_class_0::SimdFloatDiv            0      0.00%     74.89% # Class of committed instruction
system.switch_cpus_1.commit.op_class_0::SimdFloatMisc            0      0.00%     74.89% # Class of committed instruction
system.switch_cpus_1.commit.op_class_0::SimdFloatMult            0      0.00%     74.89% # Class of committed instruction
system.switch_cpus_1.commit.op_class_0::SimdFloatMultAcc            0      0.00%     74.89% # Class of committed instruction
system.switch_cpus_1.commit.op_class_0::SimdFloatSqrt            0      0.00%     74.89% # Class of committed instruction
system.switch_cpus_1.commit.op_class_0::SimdReduceAdd            0      0.00%     74.89% # Class of committed instruction
system.switch_cpus_1.commit.op_class_0::SimdReduceAlu            0      0.00%     74.89% # Class of committed instruction
system.switch_cpus_1.commit.op_class_0::SimdReduceCmp            0      0.00%     74.89% # Class of committed instruction
system.switch_cpus_1.commit.op_class_0::SimdFloatReduceAdd            0      0.00%     74.89% # Class of committed instruction
system.switch_cpus_1.commit.op_class_0::SimdFloatReduceCmp            0      0.00%     74.89% # Class of committed instruction
system.switch_cpus_1.commit.op_class_0::SimdAes            0      0.00%     74.89% # Class of committed instruction
system.switch_cpus_1.commit.op_class_0::SimdAesMix            0      0.00%     74.89% # Class of committed instruction
system.switch_cpus_1.commit.op_class_0::SimdSha1Hash            0      0.00%     74.89% # Class of committed instruction
system.switch_cpus_1.commit.op_class_0::SimdSha1Hash2            0      0.00%     74.89% # Class of committed instruction
system.switch_cpus_1.commit.op_class_0::SimdSha256Hash            0      0.00%     74.89% # Class of committed instruction
system.switch_cpus_1.commit.op_class_0::SimdSha256Hash2            0      0.00%     74.89% # Class of committed instruction
system.switch_cpus_1.commit.op_class_0::SimdShaSigma2            0      0.00%     74.89% # Class of committed instruction
system.switch_cpus_1.commit.op_class_0::SimdShaSigma3            0      0.00%     74.89% # Class of committed instruction
system.switch_cpus_1.commit.op_class_0::SimdPredAlu            0      0.00%     74.89% # Class of committed instruction
system.switch_cpus_1.commit.op_class_0::MemRead    368401121     21.06%     95.95% # Class of committed instruction
system.switch_cpus_1.commit.op_class_0::MemWrite     70867758      4.05%    100.00% # Class of committed instruction
system.switch_cpus_1.commit.op_class_0::FloatMemRead            0      0.00%    100.00% # Class of committed instruction
system.switch_cpus_1.commit.op_class_0::FloatMemWrite            0      0.00%    100.00% # Class of committed instruction
system.switch_cpus_1.commit.op_class_0::IprAccess            0      0.00%    100.00% # Class of committed instruction
system.switch_cpus_1.commit.op_class_0::InstPrefetch            0      0.00%    100.00% # Class of committed instruction
system.switch_cpus_1.commit.op_class_0::total   1749224775                       # Class of committed instruction
system.switch_cpus_1.commit.refs            439268879                       # Number of memory references committed
system.switch_cpus_1.commit.swp_count               0                       # Number of s/w prefetches committed
system.switch_cpus_1.commit.vec_insts               0                       # Number of committed Vector instructions.
system.switch_cpus_1.committedInsts        1000000001                       # Number of Instructions Simulated
system.switch_cpus_1.committedOps          1749224775                       # Number of Ops (including micro ops) Simulated
system.switch_cpus_1.cpi                     7.802789                       # CPI: Cycles Per Instruction
system.switch_cpus_1.cpi_total               7.802789                       # CPI: Total CPI of All Threads
system.switch_cpus_1.decode.BlockedCycles   6451456724                       # Number of cycles decode is blocked
system.switch_cpus_1.decode.DecodedInsts   6520291674                       # Number of instructions handled by decode
system.switch_cpus_1.decode.IdleCycles      369647200                       # Number of cycles decode is idle
system.switch_cpus_1.decode.RunCycles       710995136                       # Number of cycles decode is running
system.switch_cpus_1.decode.SquashCycles     84519418                       # Number of cycles decode is squashing
system.switch_cpus_1.decode.UnblockCycles    186170122                       # Number of cycles decode is unblocking
system.switch_cpus_1.dtb.rdAccesses         789059206                       # TLB accesses on read requests
system.switch_cpus_1.dtb.rdMisses            92137244                       # TLB misses on read requests
system.switch_cpus_1.dtb.wrAccesses         162119221                       # TLB accesses on write requests
system.switch_cpus_1.dtb.wrMisses             1303445                       # TLB misses on write requests
system.switch_cpus_1.fetch.Branches        1124723860                       # Number of branches that fetch encountered
system.switch_cpus_1.fetch.CacheLines       476049239                       # Number of cache lines fetched
system.switch_cpus_1.fetch.Cycles          7187062345                       # Number of cycles fetch has run and was not squashing or blocked
system.switch_cpus_1.fetch.IcacheSquashes     14060228                       # Number of outstanding Icache misses that were squashed
system.switch_cpus_1.fetch.Insts           4555407521                       # Number of instructions fetch has processed
system.switch_cpus_1.fetch.MiscStallCycles            7                       # Number of cycles fetch has spent waiting on interrupts, or bad addresses, or out of MSHRs
system.switch_cpus_1.fetch.PendingTrapStallCycles          163                       # Number of stall cycles due to pending traps
system.switch_cpus_1.fetch.SquashCycles     169038836                       # Number of cycles fetch has spent squashing
system.switch_cpus_1.fetch.branchRate        0.144144                       # Number of branch fetches per cycle
system.switch_cpus_1.fetch.icacheStallCycles    531206680                       # Number of cycles fetch is stalled on an Icache miss
system.switch_cpus_1.fetch.predictedBranches    327807318                       # Number of branches that fetch has predicted taken
system.switch_cpus_1.fetch.rate              0.583818                       # Number of inst fetches per cycle
system.switch_cpus_1.fetch.rateDist::samples   7802788613                       # Number of instructions fetched each cycle (Total)
system.switch_cpus_1.fetch.rateDist::mean     1.029490                       # Number of instructions fetched each cycle (Total)
system.switch_cpus_1.fetch.rateDist::stdev     2.517288                       # Number of instructions fetched each cycle (Total)
system.switch_cpus_1.fetch.rateDist::underflows            0      0.00%      0.00% # Number of instructions fetched each cycle (Total)
system.switch_cpus_1.fetch.rateDist::0     6542185080     83.84%     83.84% # Number of instructions fetched each cycle (Total)
system.switch_cpus_1.fetch.rateDist::1       52752914      0.68%     84.52% # Number of instructions fetched each cycle (Total)
system.switch_cpus_1.fetch.rateDist::2       84198891      1.08%     85.60% # Number of instructions fetched each cycle (Total)
system.switch_cpus_1.fetch.rateDist::3       64958988      0.83%     86.43% # Number of instructions fetched each cycle (Total)
system.switch_cpus_1.fetch.rateDist::4       86906744      1.11%     87.55% # Number of instructions fetched each cycle (Total)
system.switch_cpus_1.fetch.rateDist::5      111089048      1.42%     88.97% # Number of instructions fetched each cycle (Total)
system.switch_cpus_1.fetch.rateDist::6       32137460      0.41%     89.38% # Number of instructions fetched each cycle (Total)
system.switch_cpus_1.fetch.rateDist::7      107509091      1.38%     90.76% # Number of instructions fetched each cycle (Total)
system.switch_cpus_1.fetch.rateDist::8      721050397      9.24%    100.00% # Number of instructions fetched each cycle (Total)
system.switch_cpus_1.fetch.rateDist::overflows            0      0.00%    100.00% # Number of instructions fetched each cycle (Total)
system.switch_cpus_1.fetch.rateDist::min_value            0                       # Number of instructions fetched each cycle (Total)
system.switch_cpus_1.fetch.rateDist::max_value            8                       # Number of instructions fetched each cycle (Total)
system.switch_cpus_1.fetch.rateDist::total   7802788613                       # Number of instructions fetched each cycle (Total)
system.switch_cpus_1.iew.branchMispredicts    116110809                       # Number of branch mispredicts detected at execute
system.switch_cpus_1.iew.exec_branches      493098324                       # Number of branches executed
system.switch_cpus_1.iew.exec_nop                   0                       # number of nop insts executed
system.switch_cpus_1.iew.exec_rate           0.562113                       # Inst execution rate
system.switch_cpus_1.iew.exec_refs         1220929722                       # number of memory reference insts executed
system.switch_cpus_1.iew.exec_stores        162119221                       # Number of stores executed
system.switch_cpus_1.iew.exec_swp                   0                       # number of swp insts executed
system.switch_cpus_1.iew.iewBlockCycles    3703110687                       # Number of cycles IEW is blocking
system.switch_cpus_1.iew.iewDispLoadInsts   1026981576                       # Number of dispatched load instructions
system.switch_cpus_1.iew.iewDispNonSpecInsts            0                       # Number of dispatched non-speculative instructions
system.switch_cpus_1.iew.iewDispSquashedInsts      7542889                       # Number of squashed instructions skipped by dispatch
system.switch_cpus_1.iew.iewDispStoreInsts    281084545                       # Number of dispatched store instructions
system.switch_cpus_1.iew.iewDispatchedInsts   5370563856                       # Number of instructions dispatched to IQ
system.switch_cpus_1.iew.iewExecLoadInsts   1058810501                       # Number of load instructions executed
system.switch_cpus_1.iew.iewExecSquashedInsts    173272210                       # Number of squashed instructions skipped in execute
system.switch_cpus_1.iew.iewExecutedInsts   4386045898                       # Number of executed instructions
system.switch_cpus_1.iew.iewIQFullEvents     32337226                       # Number of times the IQ has become full, causing a stall
system.switch_cpus_1.iew.iewIdleCycles              0                       # Number of cycles IEW is idle
system.switch_cpus_1.iew.iewLSQFullEvents    519472330                       # Number of times the LSQ has become full, causing a stall
system.switch_cpus_1.iew.iewSquashCycles     84519418                       # Number of cycles IEW is squashing
system.switch_cpus_1.iew.iewUnblockCycles    574003122                       # Number of cycles IEW is unblocking
system.switch_cpus_1.iew.lsq.thread0.blockedLoads            0                       # Number of blocked loads due to partial load-store forwarding
system.switch_cpus_1.iew.lsq.thread0.cacheBlocked     41090853                       # Number of times an access to memory failed due to the cache being blocked
system.switch_cpus_1.iew.lsq.thread0.forwLoads     17704918                       # Number of loads that had data forwarded from stores
system.switch_cpus_1.iew.lsq.thread0.ignoredResponses       211684                       # Number of memory responses ignored because the instruction is squashed
system.switch_cpus_1.iew.lsq.thread0.invAddrLoads            0                       # Number of loads ignored due to an invalid address
system.switch_cpus_1.iew.lsq.thread0.invAddrSwpfs            0                       # Number of software prefetches ignored due to an invalid address
system.switch_cpus_1.iew.lsq.thread0.memOrderViolation       382694                       # Number of memory ordering violations
system.switch_cpus_1.iew.lsq.thread0.rescheduledLoads            0                       # Number of loads that were rescheduled
system.switch_cpus_1.iew.lsq.thread0.squashedLoads    658580437                       # Number of loads squashed
system.switch_cpus_1.iew.lsq.thread0.squashedStores    210216783                       # Number of stores squashed
system.switch_cpus_1.iew.memOrderViolationEvents       382694                       # Number of memory order violations
system.switch_cpus_1.iew.predictedNotTakenIncorrect    103932224                       # Number of branches that were predicted not taken incorrectly
system.switch_cpus_1.iew.predictedTakenIncorrect     12178585                       # Number of branches that were predicted taken incorrectly
system.switch_cpus_1.iew.wb_consumers      4278966051                       # num instructions consuming a value
system.switch_cpus_1.iew.wb_count          3947134646                       # cumulative count of insts written-back
system.switch_cpus_1.iew.wb_fanout           0.670040                       # average fanout of values written-back
system.switch_cpus_1.iew.wb_producers      2867078136                       # num instructions producing a value
system.switch_cpus_1.iew.wb_rate             0.505862                       # insts written-back per cycle
system.switch_cpus_1.iew.wb_sent           3985297983                       # cumulative count of insts sent to commit
system.switch_cpus_1.int_regfile_reads     5599617263                       # number of integer regfile reads
system.switch_cpus_1.int_regfile_writes    3267461776                       # number of integer regfile writes
system.switch_cpus_1.ipc                     0.128159                       # IPC: Instructions Per Cycle
system.switch_cpus_1.ipc_total               0.128159                       # IPC: Total IPC of All Threads
system.switch_cpus_1.iq.FU_type_0::No_OpClass     36888073      0.81%      0.81% # Type of FU issued
system.switch_cpus_1.iq.FU_type_0::IntAlu   3253712596     71.36%     72.17% # Type of FU issued
system.switch_cpus_1.iq.FU_type_0::IntMult        91680      0.00%     72.18% # Type of FU issued
system.switch_cpus_1.iq.FU_type_0::IntDiv            0      0.00%     72.18% # Type of FU issued
system.switch_cpus_1.iq.FU_type_0::FloatAdd            0      0.00%     72.18% # Type of FU issued
system.switch_cpus_1.iq.FU_type_0::FloatCmp            0      0.00%     72.18% # Type of FU issued
system.switch_cpus_1.iq.FU_type_0::FloatCvt            0      0.00%     72.18% # Type of FU issued
system.switch_cpus_1.iq.FU_type_0::FloatMult            0      0.00%     72.18% # Type of FU issued
system.switch_cpus_1.iq.FU_type_0::FloatMultAcc            0      0.00%     72.18% # Type of FU issued
system.switch_cpus_1.iq.FU_type_0::FloatDiv            0      0.00%     72.18% # Type of FU issued
system.switch_cpus_1.iq.FU_type_0::FloatMisc            0      0.00%     72.18% # Type of FU issued
system.switch_cpus_1.iq.FU_type_0::FloatSqrt            0      0.00%     72.18% # Type of FU issued
system.switch_cpus_1.iq.FU_type_0::SimdAdd            0      0.00%     72.18% # Type of FU issued
system.switch_cpus_1.iq.FU_type_0::SimdAddAcc            0      0.00%     72.18% # Type of FU issued
system.switch_cpus_1.iq.FU_type_0::SimdAlu            0      0.00%     72.18% # Type of FU issued
system.switch_cpus_1.iq.FU_type_0::SimdCmp            0      0.00%     72.18% # Type of FU issued
system.switch_cpus_1.iq.FU_type_0::SimdCvt            0      0.00%     72.18% # Type of FU issued
system.switch_cpus_1.iq.FU_type_0::SimdMisc            0      0.00%     72.18% # Type of FU issued
system.switch_cpus_1.iq.FU_type_0::SimdMult            0      0.00%     72.18% # Type of FU issued
system.switch_cpus_1.iq.FU_type_0::SimdMultAcc            0      0.00%     72.18% # Type of FU issued
system.switch_cpus_1.iq.FU_type_0::SimdShift            0      0.00%     72.18% # Type of FU issued
system.switch_cpus_1.iq.FU_type_0::SimdShiftAcc            0      0.00%     72.18% # Type of FU issued
system.switch_cpus_1.iq.FU_type_0::SimdDiv            0      0.00%     72.18% # Type of FU issued
system.switch_cpus_1.iq.FU_type_0::SimdSqrt            0      0.00%     72.18% # Type of FU issued
system.switch_cpus_1.iq.FU_type_0::SimdFloatAdd            0      0.00%     72.18% # Type of FU issued
system.switch_cpus_1.iq.FU_type_0::SimdFloatAlu            0      0.00%     72.18% # Type of FU issued
system.switch_cpus_1.iq.FU_type_0::SimdFloatCmp            0      0.00%     72.18% # Type of FU issued
system.switch_cpus_1.iq.FU_type_0::SimdFloatCvt            0      0.00%     72.18% # Type of FU issued
system.switch_cpus_1.iq.FU_type_0::SimdFloatDiv            0      0.00%     72.18% # Type of FU issued
system.switch_cpus_1.iq.FU_type_0::SimdFloatMisc            0      0.00%     72.18% # Type of FU issued
system.switch_cpus_1.iq.FU_type_0::SimdFloatMult            0      0.00%     72.18% # Type of FU issued
system.switch_cpus_1.iq.FU_type_0::SimdFloatMultAcc            0      0.00%     72.18% # Type of FU issued
system.switch_cpus_1.iq.FU_type_0::SimdFloatSqrt            0      0.00%     72.18% # Type of FU issued
system.switch_cpus_1.iq.FU_type_0::SimdReduceAdd            0      0.00%     72.18% # Type of FU issued
system.switch_cpus_1.iq.FU_type_0::SimdReduceAlu            0      0.00%     72.18% # Type of FU issued
system.switch_cpus_1.iq.FU_type_0::SimdReduceCmp            0      0.00%     72.18% # Type of FU issued
system.switch_cpus_1.iq.FU_type_0::SimdFloatReduceAdd            0      0.00%     72.18% # Type of FU issued
system.switch_cpus_1.iq.FU_type_0::SimdFloatReduceCmp            0      0.00%     72.18% # Type of FU issued
system.switch_cpus_1.iq.FU_type_0::SimdAes            0      0.00%     72.18% # Type of FU issued
system.switch_cpus_1.iq.FU_type_0::SimdAesMix            0      0.00%     72.18% # Type of FU issued
system.switch_cpus_1.iq.FU_type_0::SimdSha1Hash            0      0.00%     72.18% # Type of FU issued
system.switch_cpus_1.iq.FU_type_0::SimdSha1Hash2            0      0.00%     72.18% # Type of FU issued
system.switch_cpus_1.iq.FU_type_0::SimdSha256Hash            0      0.00%     72.18% # Type of FU issued
system.switch_cpus_1.iq.FU_type_0::SimdSha256Hash2            0      0.00%     72.18% # Type of FU issued
system.switch_cpus_1.iq.FU_type_0::SimdShaSigma2            0      0.00%     72.18% # Type of FU issued
system.switch_cpus_1.iq.FU_type_0::SimdShaSigma3            0      0.00%     72.18% # Type of FU issued
system.switch_cpus_1.iq.FU_type_0::SimdPredAlu            0      0.00%     72.18% # Type of FU issued
system.switch_cpus_1.iq.FU_type_0::MemRead   1091884946     23.95%     96.12% # Type of FU issued
system.switch_cpus_1.iq.FU_type_0::MemWrite    176740814      3.88%    100.00% # Type of FU issued
system.switch_cpus_1.iq.FU_type_0::FloatMemRead            0      0.00%    100.00% # Type of FU issued
system.switch_cpus_1.iq.FU_type_0::FloatMemWrite            0      0.00%    100.00% # Type of FU issued
system.switch_cpus_1.iq.FU_type_0::IprAccess            0      0.00%    100.00% # Type of FU issued
system.switch_cpus_1.iq.FU_type_0::InstPrefetch            0      0.00%    100.00% # Type of FU issued
system.switch_cpus_1.iq.FU_type_0::total   4559318109                       # Type of FU issued
system.switch_cpus_1.iq.fp_alu_accesses             0                       # Number of floating point alu accesses
system.switch_cpus_1.iq.fp_inst_queue_reads            0                       # Number of floating instruction queue reads
system.switch_cpus_1.iq.fp_inst_queue_wakeup_accesses            0                       # Number of floating instruction queue wakeup accesses
system.switch_cpus_1.iq.fp_inst_queue_writes            0                       # Number of floating instruction queue writes
system.switch_cpus_1.iq.fu_busy_cnt         110404227                       # FU busy when requested
system.switch_cpus_1.iq.fu_busy_rate         0.024215                       # FU busy rate (busy events/executed inst)
system.switch_cpus_1.iq.fu_full::No_OpClass            0      0.00%      0.00% # attempts to use FU when none available
system.switch_cpus_1.iq.fu_full::IntAlu      49933741     45.23%     45.23% # attempts to use FU when none available
system.switch_cpus_1.iq.fu_full::IntMult            0      0.00%     45.23% # attempts to use FU when none available
system.switch_cpus_1.iq.fu_full::IntDiv             0      0.00%     45.23% # attempts to use FU when none available
system.switch_cpus_1.iq.fu_full::FloatAdd            0      0.00%     45.23% # attempts to use FU when none available
system.switch_cpus_1.iq.fu_full::FloatCmp            0      0.00%     45.23% # attempts to use FU when none available
system.switch_cpus_1.iq.fu_full::FloatCvt            0      0.00%     45.23% # attempts to use FU when none available
system.switch_cpus_1.iq.fu_full::FloatMult            0      0.00%     45.23% # attempts to use FU when none available
system.switch_cpus_1.iq.fu_full::FloatMultAcc            0      0.00%     45.23% # attempts to use FU when none available
system.switch_cpus_1.iq.fu_full::FloatDiv            0      0.00%     45.23% # attempts to use FU when none available
system.switch_cpus_1.iq.fu_full::FloatMisc            0      0.00%     45.23% # attempts to use FU when none available
system.switch_cpus_1.iq.fu_full::FloatSqrt            0      0.00%     45.23% # attempts to use FU when none available
system.switch_cpus_1.iq.fu_full::SimdAdd            0      0.00%     45.23% # attempts to use FU when none available
system.switch_cpus_1.iq.fu_full::SimdAddAcc            0      0.00%     45.23% # attempts to use FU when none available
system.switch_cpus_1.iq.fu_full::SimdAlu            0      0.00%     45.23% # attempts to use FU when none available
system.switch_cpus_1.iq.fu_full::SimdCmp            0      0.00%     45.23% # attempts to use FU when none available
system.switch_cpus_1.iq.fu_full::SimdCvt            0      0.00%     45.23% # attempts to use FU when none available
system.switch_cpus_1.iq.fu_full::SimdMisc            0      0.00%     45.23% # attempts to use FU when none available
system.switch_cpus_1.iq.fu_full::SimdMult            0      0.00%     45.23% # attempts to use FU when none available
system.switch_cpus_1.iq.fu_full::SimdMultAcc            0      0.00%     45.23% # attempts to use FU when none available
system.switch_cpus_1.iq.fu_full::SimdShift            0      0.00%     45.23% # attempts to use FU when none available
system.switch_cpus_1.iq.fu_full::SimdShiftAcc            0      0.00%     45.23% # attempts to use FU when none available
system.switch_cpus_1.iq.fu_full::SimdDiv            0      0.00%     45.23% # attempts to use FU when none available
system.switch_cpus_1.iq.fu_full::SimdSqrt            0      0.00%     45.23% # attempts to use FU when none available
system.switch_cpus_1.iq.fu_full::SimdFloatAdd            0      0.00%     45.23% # attempts to use FU when none available
system.switch_cpus_1.iq.fu_full::SimdFloatAlu            0      0.00%     45.23% # attempts to use FU when none available
system.switch_cpus_1.iq.fu_full::SimdFloatCmp            0      0.00%     45.23% # attempts to use FU when none available
system.switch_cpus_1.iq.fu_full::SimdFloatCvt            0      0.00%     45.23% # attempts to use FU when none available
system.switch_cpus_1.iq.fu_full::SimdFloatDiv            0      0.00%     45.23% # attempts to use FU when none available
system.switch_cpus_1.iq.fu_full::SimdFloatMisc            0      0.00%     45.23% # attempts to use FU when none available
system.switch_cpus_1.iq.fu_full::SimdFloatMult            0      0.00%     45.23% # attempts to use FU when none available
system.switch_cpus_1.iq.fu_full::SimdFloatMultAcc            0      0.00%     45.23% # attempts to use FU when none available
system.switch_cpus_1.iq.fu_full::SimdFloatSqrt            0      0.00%     45.23% # attempts to use FU when none available
system.switch_cpus_1.iq.fu_full::SimdReduceAdd            0      0.00%     45.23% # attempts to use FU when none available
system.switch_cpus_1.iq.fu_full::SimdReduceAlu            0      0.00%     45.23% # attempts to use FU when none available
system.switch_cpus_1.iq.fu_full::SimdReduceCmp            0      0.00%     45.23% # attempts to use FU when none available
system.switch_cpus_1.iq.fu_full::SimdFloatReduceAdd            0      0.00%     45.23% # attempts to use FU when none available
system.switch_cpus_1.iq.fu_full::SimdFloatReduceCmp            0      0.00%     45.23% # attempts to use FU when none available
system.switch_cpus_1.iq.fu_full::SimdAes            0      0.00%     45.23% # attempts to use FU when none available
system.switch_cpus_1.iq.fu_full::SimdAesMix            0      0.00%     45.23% # attempts to use FU when none available
system.switch_cpus_1.iq.fu_full::SimdSha1Hash            0      0.00%     45.23% # attempts to use FU when none available
system.switch_cpus_1.iq.fu_full::SimdSha1Hash2            0      0.00%     45.23% # attempts to use FU when none available
system.switch_cpus_1.iq.fu_full::SimdSha256Hash            0      0.00%     45.23% # attempts to use FU when none available
system.switch_cpus_1.iq.fu_full::SimdSha256Hash2            0      0.00%     45.23% # attempts to use FU when none available
system.switch_cpus_1.iq.fu_full::SimdShaSigma2            0      0.00%     45.23% # attempts to use FU when none available
system.switch_cpus_1.iq.fu_full::SimdShaSigma3            0      0.00%     45.23% # attempts to use FU when none available
system.switch_cpus_1.iq.fu_full::SimdPredAlu            0      0.00%     45.23% # attempts to use FU when none available
system.switch_cpus_1.iq.fu_full::MemRead     57297934     51.90%     97.13% # attempts to use FU when none available
system.switch_cpus_1.iq.fu_full::MemWrite      3172552      2.87%    100.00% # attempts to use FU when none available
system.switch_cpus_1.iq.fu_full::FloatMemRead            0      0.00%    100.00% # attempts to use FU when none available
system.switch_cpus_1.iq.fu_full::FloatMemWrite            0      0.00%    100.00% # attempts to use FU when none available
system.switch_cpus_1.iq.fu_full::IprAccess            0      0.00%    100.00% # attempts to use FU when none available
system.switch_cpus_1.iq.fu_full::InstPrefetch            0      0.00%    100.00% # attempts to use FU when none available
system.switch_cpus_1.iq.int_alu_accesses   4632834263                       # Number of integer alu accesses
system.switch_cpus_1.iq.int_inst_queue_reads  17105784089                       # Number of integer instruction queue reads
system.switch_cpus_1.iq.int_inst_queue_wakeup_accesses   3947134646                       # Number of integer instruction queue wakeup accesses
system.switch_cpus_1.iq.int_inst_queue_writes   8992236490                       # Number of integer instruction queue writes
system.switch_cpus_1.iq.iqInstsAdded       5370563856                       # Number of instructions added to the IQ (excludes non-spec)
system.switch_cpus_1.iq.iqInstsIssued      4559318109                       # Number of instructions issued
system.switch_cpus_1.iq.iqSquashedInstsExamined   3621338988                       # Number of squashed instructions iterated over during squash; mainly for profiling
system.switch_cpus_1.iq.iqSquashedInstsIssued     73955032                       # Number of squashed instructions issued
system.switch_cpus_1.iq.iqSquashedOperandsExamined   4959668246                       # Number of squashed operands that are examined and possibly removed from graph
system.switch_cpus_1.iq.issued_per_cycle::samples   7802788613                       # Number of insts issued each cycle
system.switch_cpus_1.iq.issued_per_cycle::mean     0.584319                       # Number of insts issued each cycle
system.switch_cpus_1.iq.issued_per_cycle::stdev     1.506753                       # Number of insts issued each cycle
system.switch_cpus_1.iq.issued_per_cycle::underflows            0      0.00%      0.00% # Number of insts issued each cycle
system.switch_cpus_1.iq.issued_per_cycle::0   6376307198     81.72%     81.72% # Number of insts issued each cycle
system.switch_cpus_1.iq.issued_per_cycle::1    402077048      5.15%     86.87% # Number of insts issued each cycle
system.switch_cpus_1.iq.issued_per_cycle::2    248545944      3.19%     90.06% # Number of insts issued each cycle
system.switch_cpus_1.iq.issued_per_cycle::3    207928193      2.66%     92.72% # Number of insts issued each cycle
system.switch_cpus_1.iq.issued_per_cycle::4    185450447      2.38%     95.10% # Number of insts issued each cycle
system.switch_cpus_1.iq.issued_per_cycle::5    146723859      1.88%     96.98% # Number of insts issued each cycle
system.switch_cpus_1.iq.issued_per_cycle::6    132034178      1.69%     98.67% # Number of insts issued each cycle
system.switch_cpus_1.iq.issued_per_cycle::7     61035525      0.78%     99.45% # Number of insts issued each cycle
system.switch_cpus_1.iq.issued_per_cycle::8     42686221      0.55%    100.00% # Number of insts issued each cycle
system.switch_cpus_1.iq.issued_per_cycle::overflows            0      0.00%    100.00% # Number of insts issued each cycle
system.switch_cpus_1.iq.issued_per_cycle::min_value            0                       # Number of insts issued each cycle
system.switch_cpus_1.iq.issued_per_cycle::max_value            8                       # Number of insts issued each cycle
system.switch_cpus_1.iq.issued_per_cycle::total   7802788613                       # Number of insts issued each cycle
system.switch_cpus_1.iq.rate                 0.584319                       # Inst issue rate
system.switch_cpus_1.iq.vec_alu_accesses            0                       # Number of vector alu accesses
system.switch_cpus_1.iq.vec_inst_queue_reads            0                       # Number of vector instruction queue reads
system.switch_cpus_1.iq.vec_inst_queue_wakeup_accesses            0                       # Number of vector instruction queue wakeup accesses
system.switch_cpus_1.iq.vec_inst_queue_writes            0                       # Number of vector instruction queue writes
system.switch_cpus_1.itb.rdAccesses                 0                       # TLB accesses on read requests
system.switch_cpus_1.itb.rdMisses                   0                       # TLB misses on read requests
system.switch_cpus_1.itb.wrAccesses         476049294                       # TLB accesses on write requests
system.switch_cpus_1.itb.wrMisses                  59                       # TLB misses on write requests
system.switch_cpus_1.memDep0.conflictingLoads    101703149                       # Number of conflicting loads.
system.switch_cpus_1.memDep0.conflictingStores    101604610                       # Number of conflicting stores.
system.switch_cpus_1.memDep0.insertedLoads   1026981576                       # Number of loads inserted to the mem dependence unit.
system.switch_cpus_1.memDep0.insertedStores    281084545                       # Number of stores inserted to the mem dependence unit.
system.switch_cpus_1.misc_regfile_reads    2444774649                       # number of misc regfile reads
system.switch_cpus_1.numCycles             7802788613                       # number of cpu cycles simulated
system.switch_cpus_1.numWorkItemsCompleted            0                       # number of work items this cpu completed
system.switch_cpus_1.numWorkItemsStarted            0                       # number of work items this cpu started
system.switch_cpus_1.rename.BlockCycles    5485644988                       # Number of cycles rename is blocking
system.switch_cpus_1.rename.CommittedMaps   2122994459                       # Number of HB maps that are committed
system.switch_cpus_1.rename.IQFullEvents    409494398                       # Number of times rename has blocked due to IQ full
system.switch_cpus_1.rename.IdleCycles      461507794                       # Number of cycles rename is idle
system.switch_cpus_1.rename.LQFullEvents    639580628                       # Number of times rename has blocked due to LQ full
system.switch_cpus_1.rename.ROBFullEvents     58205168                       # Number of times rename has blocked due to ROB full
system.switch_cpus_1.rename.RenameLookups  15602572036                       # Number of register rename lookups that rename has made
system.switch_cpus_1.rename.RenamedInsts   6057873629                       # Number of instructions processed by rename
system.switch_cpus_1.rename.RenamedOperands   7108433913                       # Number of destination operands rename has renamed
system.switch_cpus_1.rename.RunCycles       766764542                       # Number of cycles rename is running
system.switch_cpus_1.rename.SQFullEvents     47840141                       # Number of times rename has blocked due to SQ full
system.switch_cpus_1.rename.SquashCycles     84519418                       # Number of cycles rename is squashing
system.switch_cpus_1.rename.UnblockCycles   1004351859                       # Number of cycles rename is unblocking
system.switch_cpus_1.rename.UndoneMaps     4985439333                       # Number of HB maps that are undone due to squashing
system.switch_cpus_1.rename.int_rename_lookups   8460558755                       # Number of integer rename lookups
system.switch_cpus_1.rename.serializeStallCycles            0                       # count of cycles rename stalled for serializing inst
system.switch_cpus_1.rename.serializingInsts            0                       # count of serializing insts renamed
system.switch_cpus_1.rename.skidInsts       972815128                       # count of insts added to the skid buffer
system.switch_cpus_1.rename.tempSerializingInsts            0                       # count of temporary serializing insts renamed
system.switch_cpus_1.rob.rob_reads        12507183174                       # The number of ROB reads
system.switch_cpus_1.rob.rob_writes       11352103357                       # The number of ROB writes
system.tol2bus.snoop_filter.hit_multi_requests           99                       # Number of requests hitting in the snoop filter with multiple (>1) holders of the requested data.
system.tol2bus.snoop_filter.hit_multi_snoops            0                       # Number of snoops hitting in the snoop filter with multiple (>1) holders of the requested data.
system.tol2bus.snoop_filter.hit_single_requests    124844497                       # Number of requests hitting in the snoop filter with a single holder of the requested data.
system.tol2bus.snoop_filter.hit_single_snoops       251089                       # Number of snoops hitting in the snoop filter with a single holder of the requested data.
system.tol2bus.snoop_filter.tot_requests    229004454                       # Total number of requests made to the snoop filter.
system.tol2bus.snoop_filter.tot_snoops         251089                       # Total number of snoops made to the snoop filter.
system.tol3bus.snoop_filter.hit_multi_requests            0                       # Number of requests hitting in the snoop filter with multiple (>1) holders of the requested data.
system.tol3bus.snoop_filter.hit_multi_snoops            0                       # Number of snoops hitting in the snoop filter with multiple (>1) holders of the requested data.
system.tol3bus.snoop_filter.hit_single_requests    104839526                       # Number of requests hitting in the snoop filter with a single holder of the requested data.
system.tol3bus.snoop_filter.hit_single_snoops      2124757                       # Number of snoops hitting in the snoop filter with a single holder of the requested data.
system.tol3bus.snoop_filter.tot_requests    194887146                       # Total number of requests made to the snoop filter.
system.tol3bus.snoop_filter.tot_snoops        2124757                       # Total number of snoops made to the snoop filter.
system.membus.trans_dist::ReadResp           61161314                       # Transaction distribution
system.membus.trans_dist::WritebackDirty     15670048                       # Transaction distribution
system.membus.trans_dist::CleanEvict         46630764                       # Transaction distribution
system.membus.trans_dist::UpgradeReq             1559                       # Transaction distribution
system.membus.trans_dist::ReadExReq           1140975                       # Transaction distribution
system.membus.trans_dist::ReadExResp          1140975                       # Transaction distribution
system.membus.trans_dist::ReadSharedReq      61161314                       # Transaction distribution
system.membus.pkt_count_system.l3.mem_side::system.mem_ctrls.port    186906949                       # Packet count per connected master and slave (bytes)
system.membus.pkt_count_system.l3.mem_side::total    186906949                       # Packet count per connected master and slave (bytes)
system.membus.pkt_count::total              186906949                       # Packet count per connected master and slave (bytes)
system.membus.pkt_size_system.l3.mem_side::system.mem_ctrls.port   4990229568                       # Cumulative packet size per connected master and slave (bytes)
system.membus.pkt_size_system.l3.mem_side::total   4990229568                       # Cumulative packet size per connected master and slave (bytes)
system.membus.pkt_size::total              4990229568                       # Cumulative packet size per connected master and slave (bytes)
system.membus.snoops                                0                       # Total snoops (count)
system.membus.snoopTraffic                          0                       # Total snoop traffic (bytes)
system.membus.snoop_fanout::samples          62303848                       # Request fanout histogram
system.membus.snoop_fanout::mean                    0                       # Request fanout histogram
system.membus.snoop_fanout::stdev                   0                       # Request fanout histogram
system.membus.snoop_fanout::underflows              0      0.00%      0.00% # Request fanout histogram
system.membus.snoop_fanout::0                62303848    100.00%    100.00% # Request fanout histogram
system.membus.snoop_fanout::1                       0      0.00%    100.00% # Request fanout histogram
system.membus.snoop_fanout::overflows               0      0.00%    100.00% # Request fanout histogram
system.membus.snoop_fanout::min_value               0                       # Request fanout histogram
system.membus.snoop_fanout::max_value               0                       # Request fanout histogram
system.membus.snoop_fanout::total            62303848                       # Request fanout histogram
system.membus.reqLayer2.occupancy        203435935000                       # Layer occupancy (ticks)
system.membus.reqLayer2.utilization               5.2                       # Layer utilization (%)
system.membus.respLayer1.occupancy       340737541750                       # Layer occupancy (ticks)
system.membus.respLayer1.utilization              8.7                       # Layer utilization (%)
system.membus.power_state.pwrStateResidencyTicks::UNDEFINED 5455503338000                       # Cumulative time (in ticks) in various power states
system.switch_cpus_1.dtb.walker.power_state.pwrStateResidencyTicks::UNDEFINED 5455503338000                       # Cumulative time (in ticks) in various power states
system.switch_cpus_1.itb.walker.power_state.pwrStateResidencyTicks::UNDEFINED 5455503338000                       # Cumulative time (in ticks) in various power states
system.switch_cpus_1.power_state.pwrStateResidencyTicks::OFF 5455503338000                       # Cumulative time (in ticks) in various power states
system.switch_cpus.dtb.walker.power_state.pwrStateResidencyTicks::UNDEFINED 5455503338000                       # Cumulative time (in ticks) in various power states
system.switch_cpus.itb.walker.power_state.pwrStateResidencyTicks::UNDEFINED 5455503338000                       # Cumulative time (in ticks) in various power states
system.switch_cpus.power_state.numTransitions            1                       # Number of power state transitions
system.switch_cpus.power_state.pwrStateResidencyTicks::OFF 5455503338000                       # Cumulative time (in ticks) in various power states
system.tol2bus.trans_dist::ReadResp          99874735                       # Transaction distribution
system.tol2bus.trans_dist::WritebackDirty     41276999                       # Transaction distribution
system.tol2bus.trans_dist::WritebackClean            4                       # Transaction distribution
system.tol2bus.trans_dist::CleanEvict        81314278                       # Transaction distribution
system.tol2bus.trans_dist::UpgradeReq        20684540                       # Transaction distribution
system.tol2bus.trans_dist::UpgradeResp       20684540                       # Transaction distribution
system.tol2bus.trans_dist::ReadExReq          4285222                       # Transaction distribution
system.tol2bus.trans_dist::ReadExResp         4285222                       # Transaction distribution
system.tol2bus.trans_dist::ReadCleanReq      99874735                       # Transaction distribution
system.tol2bus.pkt_count_system.cpu.icache.mem_side::system.l2.cpu_side           12                       # Packet count per connected master and slave (bytes)
system.tol2bus.pkt_count_system.cpu.dcache.mem_side::system.l2.cpu_side    353848939                       # Packet count per connected master and slave (bytes)
system.tol2bus.pkt_count::total             353848951                       # Packet count per connected master and slave (bytes)
system.tol2bus.pkt_size_system.cpu.icache.mem_side::system.l2.cpu_side          512                       # Cumulative packet size per connected master and slave (bytes)
system.tol2bus.pkt_size_system.cpu.dcache.mem_side::system.l2.cpu_side   8264285120                       # Cumulative packet size per connected master and slave (bytes)
system.tol2bus.pkt_size::total             8264285632                       # Cumulative packet size per connected master and slave (bytes)
system.tol2bus.snoops                        18431324                       # Total snoops (count)
system.tol2bus.snoopTraffic                1043679808                       # Total snoop traffic (bytes)
system.tol2bus.snoop_fanout::samples        143275821                       # Request fanout histogram
system.tol2bus.snoop_fanout::mean            0.001753                       # Request fanout histogram
system.tol2bus.snoop_fanout::stdev           0.041834                       # Request fanout histogram
system.tol2bus.snoop_fanout::underflows             0      0.00%      0.00% # Request fanout histogram
system.tol2bus.snoop_fanout::0              143024633     99.82%     99.82% # Request fanout histogram
system.tol2bus.snoop_fanout::1                 251188      0.18%    100.00% # Request fanout histogram
system.tol2bus.snoop_fanout::2                      0      0.00%    100.00% # Request fanout histogram
system.tol2bus.snoop_fanout::3                      0      0.00%    100.00% # Request fanout histogram
system.tol2bus.snoop_fanout::4                      0      0.00%    100.00% # Request fanout histogram
system.tol2bus.snoop_fanout::overflows              0      0.00%    100.00% # Request fanout histogram
system.tol2bus.snoop_fanout::min_value              0                       # Request fanout histogram
system.tol2bus.snoop_fanout::max_value              1                       # Request fanout histogram
system.tol2bus.snoop_fanout::total          143275821                       # Request fanout histogram
system.tol2bus.reqLayer0.occupancy       139471733000                       # Layer occupancy (ticks)
system.tol2bus.reqLayer0.utilization              3.6                       # Layer utilization (%)
system.tol2bus.respLayer1.occupancy      166582199500                       # Layer occupancy (ticks)
system.tol2bus.respLayer1.utilization             4.3                       # Layer utilization (%)
system.tol2bus.respLayer0.occupancy              6000                       # Layer occupancy (ticks)
system.tol2bus.respLayer0.utilization             0.0                       # Layer utilization (%)
system.tol2bus.power_state.pwrStateResidencyTicks::UNDEFINED 5455503338000                       # Cumulative time (in ticks) in various power states
system.voltage_domain.voltage                       1                       # Voltage in Volts
system.clk_domain.clock                          1000                       # Clock period in ticks
system.l2.demand_hits::.switch_cpus_1.inst            1                       # number of demand (read+write) hits
system.l2.demand_hits::.switch_cpus_1.data     14112237                       # number of demand (read+write) hits
system.l2.demand_hits::total                 14112238                       # number of demand (read+write) hits
system.l2.overall_hits::.switch_cpus_1.inst            1                       # number of overall hits
system.l2.overall_hits::.switch_cpus_1.data     14112237                       # number of overall hits
system.l2.overall_hits::total                14112238                       # number of overall hits
system.l2.demand_misses::.switch_cpus_1.inst            3                       # number of demand (read+write) misses
system.l2.demand_misses::.switch_cpus_1.data     90047716                       # number of demand (read+write) misses
system.l2.demand_misses::total               90047719                       # number of demand (read+write) misses
system.l2.overall_misses::.switch_cpus_1.inst            3                       # number of overall misses
system.l2.overall_misses::.switch_cpus_1.data     90047716                       # number of overall misses
system.l2.overall_misses::total              90047719                       # number of overall misses
system.l2.demand_miss_latency::.switch_cpus_1.inst       286000                       # number of demand (read+write) miss cycles
system.l2.demand_miss_latency::.switch_cpus_1.data 7917704758500                       # number of demand (read+write) miss cycles
system.l2.demand_miss_latency::total     7917705044500                       # number of demand (read+write) miss cycles
system.l2.overall_miss_latency::.switch_cpus_1.inst       286000                       # number of overall miss cycles
system.l2.overall_miss_latency::.switch_cpus_1.data 7917704758500                       # number of overall miss cycles
system.l2.overall_miss_latency::total    7917705044500                       # number of overall miss cycles
system.l2.demand_accesses::.switch_cpus_1.inst            4                       # number of demand (read+write) accesses
system.l2.demand_accesses::.switch_cpus_1.data    104159953                       # number of demand (read+write) accesses
system.l2.demand_accesses::total            104159957                       # number of demand (read+write) accesses
system.l2.overall_accesses::.switch_cpus_1.inst            4                       # number of overall (read+write) accesses
system.l2.overall_accesses::.switch_cpus_1.data    104159953                       # number of overall (read+write) accesses
system.l2.overall_accesses::total           104159957                       # number of overall (read+write) accesses
system.l2.demand_miss_rate::.switch_cpus_1.inst     0.750000                       # miss rate for demand accesses
system.l2.demand_miss_rate::.switch_cpus_1.data     0.864514                       # miss rate for demand accesses
system.l2.demand_miss_rate::total            0.864514                       # miss rate for demand accesses
system.l2.overall_miss_rate::.switch_cpus_1.inst     0.750000                       # miss rate for overall accesses
system.l2.overall_miss_rate::.switch_cpus_1.data     0.864514                       # miss rate for overall accesses
system.l2.overall_miss_rate::total           0.864514                       # miss rate for overall accesses
system.l2.demand_avg_miss_latency::.switch_cpus_1.inst 95333.333333                       # average overall miss latency
system.l2.demand_avg_miss_latency::.switch_cpus_1.data 87927.879909                       # average overall miss latency
system.l2.demand_avg_miss_latency::total 87927.880155                       # average overall miss latency
system.l2.overall_avg_miss_latency::.switch_cpus_1.inst 95333.333333                       # average overall miss latency
system.l2.overall_avg_miss_latency::.switch_cpus_1.data 87927.879909                       # average overall miss latency
system.l2.overall_avg_miss_latency::total 87927.880155                       # average overall miss latency
system.l2.blocked_cycles::no_mshrs                  0                       # number of cycles access was blocked
[...]
system.cpu.dcache.demand_miss_latency::.switch_cpus.data 406218245500                       # number of demand (read+write) miss cycles
system.cpu.dcache.demand_miss_latency::.switch_cpus_1.data 20831730389200                       # number of demand (read+write) miss cycles
system.cpu.dcache.demand_miss_latency::total 21237948634700                       # number of demand (read+write) miss cycles
system.cpu.dcache.overall_miss_latency::.switch_cpus.data 406218245500                       # number of overall miss cycles
system.cpu.dcache.overall_miss_latency::.switch_cpus_1.data 20831730389200                       # number of overall miss cycles
system.cpu.dcache.overall_miss_latency::total 21237948634700                       # number of overall miss cycles
system.cpu.dcache.demand_accesses::.cpu.data    383169174                       # number of demand (read+write) accesses
system.cpu.dcache.demand_accesses::.switch_cpus.data     21732167                       # number of demand (read+write) accesses
system.cpu.dcache.demand_accesses::.switch_cpus_1.data    797586200                       # number of demand (read+write) accesses
system.cpu.dcache.demand_accesses::total   1202487541                       # number of demand (read+write) accesses
system.cpu.dcache.overall_accesses::.cpu.data    383169174                       # number of overall (read+write) accesses
system.cpu.dcache.overall_accesses::.switch_cpus.data     21732167                       # number of overall (read+write) accesses
system.cpu.dcache.overall_accesses::.switch_cpus_1.data    797586200                       # number of overall (read+write) accesses
system.cpu.dcache.overall_accesses::total   1202487541                       # number of overall (read+write) accesses
system.cpu.dcache.demand_miss_rate::.cpu.data     0.170396                       # miss rate for demand accesses
system.cpu.dcache.demand_miss_rate::.switch_cpus.data     0.282430                       # miss rate for demand accesses
system.cpu.dcache.demand_miss_rate::.switch_cpus_1.data     0.370665                       # miss rate for demand accesses
system.cpu.dcache.demand_miss_rate::total     0.305255                       # miss rate for demand accesses
system.cpu.dcache.overall_miss_rate::.cpu.data     0.170396                       # miss rate for overall accesses
system.cpu.dcache.overall_miss_rate::.switch_cpus.data     0.282430                       # miss rate for overall accesses
system.cpu.dcache.overall_miss_rate::.switch_cpus_1.data     0.370665                       # miss rate for overall accesses
system.cpu.dcache.overall_miss_rate::total     0.305255                       # miss rate for overall accesses
system.cpu.dcache.demand_avg_miss_latency::.switch_cpus.data 66182.789158                       # average overall miss latency
system.cpu.dcache.demand_avg_miss_latency::.switch_cpus_1.data 70463.847877                       # average overall miss latency
system.cpu.dcache.demand_avg_miss_latency::total 57858.755383                       # average overall miss latency
system.cpu.dcache.overall_avg_miss_latency::.switch_cpus.data 66182.789158                       # average overall miss latency
system.cpu.dcache.overall_avg_miss_latency::.switch_cpus_1.data 70463.847877                       # average overall miss latency
system.cpu.dcache.overall_avg_miss_latency::total 57858.755383                       # average overall miss latency
system.cpu.dcache.blocked_cycles::no_mshrs   1676507107                       # number of cycles access was blocked
system.cpu.dcache.blocked_cycles::no_targets      8425784                       # number of cycles access was blocked
system.cpu.dcache.blocked::no_mshrs          44297509                       # number of cycles access was blocked
system.cpu.dcache.blocked::no_targets           73133                       # number of cycles access was blocked
system.cpu.dcache.avg_blocked_cycles::no_mshrs    37.846532                       # average number of cycles each access was blocked
system.cpu.dcache.avg_blocked_cycles::no_targets   115.211792                       # average number of cycles each access was blocked
system.cpu.dcache.writebacks::.writebacks     38656519                       # number of writebacks
system.cpu.dcache.writebacks::total          38656519                       # number of writebacks
system.cpu.dcache.demand_mshr_hits::.switch_cpus_1.data    170800845                       # number of demand (read+write) MSHR hits
system.cpu.dcache.demand_mshr_hits::total    170800845                       # number of demand (read+write) MSHR hits
system.cpu.dcache.overall_mshr_hits::.switch_cpus_1.data    170800845                       # number of overall MSHR hits
system.cpu.dcache.overall_mshr_hits::total    170800845                       # number of overall MSHR hits
system.cpu.dcache.demand_mshr_misses::.switch_cpus.data      6137823                       # number of demand (read+write) MSHR misses
system.cpu.dcache.demand_mshr_misses::.switch_cpus_1.data    124836294                       # number of demand (read+write) MSHR misses
system.cpu.dcache.demand_mshr_misses::total    130974117                       # number of demand (read+write) MSHR misses
system.cpu.dcache.overall_mshr_misses::.switch_cpus.data      6137823                       # number of overall MSHR misses
system.cpu.dcache.overall_mshr_misses::.switch_cpus_1.data    124836294                       # number of overall MSHR misses
system.cpu.dcache.overall_mshr_misses::total    130974117                       # number of overall MSHR misses
system.cpu.dcache.demand_mshr_miss_latency::.switch_cpus.data 400080422500                       # number of demand (read+write) MSHR miss cycles
system.cpu.dcache.demand_mshr_miss_latency::.switch_cpus_1.data 8687983077201                       # number of demand (read+write) MSHR miss cycles
system.cpu.dcache.demand_mshr_miss_latency::total 9088063499701                       # number of demand (read+write) MSHR miss cycles
system.cpu.dcache.overall_mshr_miss_latency::.switch_cpus.data 400080422500                       # number of overall MSHR miss cycles
system.cpu.dcache.overall_mshr_miss_latency::.switch_cpus_1.data 8687983077201                       # number of overall MSHR miss cycles
system.cpu.dcache.overall_mshr_miss_latency::total 9088063499701                       # number of overall MSHR miss cycles
system.cpu.dcache.demand_mshr_miss_rate::.switch_cpus.data     0.282430                       # mshr miss rate for demand accesses
system.cpu.dcache.demand_mshr_miss_rate::.switch_cpus_1.data     0.156518                       # mshr miss rate for demand accesses
system.cpu.dcache.demand_mshr_miss_rate::total     0.108919                       # mshr miss rate for demand accesses
system.cpu.dcache.overall_mshr_miss_rate::.switch_cpus.data     0.282430                       # mshr miss rate for overall accesses
system.cpu.dcache.overall_mshr_miss_rate::.switch_cpus_1.data     0.156518                       # mshr miss rate for overall accesses
system.cpu.dcache.overall_mshr_miss_rate::total     0.108919                       # mshr miss rate for overall accesses
system.cpu.dcache.demand_avg_mshr_miss_latency::.switch_cpus.data 65182.789158                       # average overall mshr miss latency
system.cpu.dcache.demand_avg_mshr_miss_latency::.switch_cpus_1.data 69595.009583                       # average overall mshr miss latency
system.cpu.dcache.demand_avg_mshr_miss_latency::total 69388.240271                       # average overall mshr miss latency
system.cpu.dcache.overall_avg_mshr_miss_latency::.switch_cpus.data 65182.789158                       # average overall mshr miss latency
system.cpu.dcache.overall_avg_mshr_miss_latency::.switch_cpus_1.data 69595.009583                       # average overall mshr miss latency
system.cpu.dcache.overall_avg_mshr_miss_latency::total 69388.240271                       # average overall mshr miss latency
system.cpu.dcache.replacements              164100642                       # number of replacements
system.cpu.dcache.ReadReq_hits::.cpu.data    231980023                       # number of ReadReq hits
system.cpu.dcache.ReadReq_hits::.switch_cpus.data     13404047                       # number of ReadReq hits
system.cpu.dcache.ReadReq_hits::.switch_cpus_1.data    456051066                       # number of ReadReq hits
system.cpu.dcache.ReadReq_hits::total       701435136                       # number of ReadReq hits
system.cpu.dcache.ReadReq_misses::.cpu.data     52843085                       # number of ReadReq misses
system.cpu.dcache.ReadReq_misses::.switch_cpus.data      4898100                       # number of ReadReq misses
system.cpu.dcache.ReadReq_misses::.switch_cpus_1.data    270667377                       # number of ReadReq misses
system.cpu.dcache.ReadReq_misses::total     328408562                       # number of ReadReq misses
system.cpu.dcache.ReadReq_miss_latency::.switch_cpus.data 375259274000                       # number of ReadReq miss cycles
system.cpu.dcache.ReadReq_miss_latency::.switch_cpus_1.data 20191285661500                       # number of ReadReq miss cycles
system.cpu.dcache.ReadReq_miss_latency::total 20566544935500                       # number of ReadReq miss cycles
system.cpu.dcache.ReadReq_accesses::.cpu.data    284823108                       # number of ReadReq accesses(hits+misses)
system.cpu.dcache.ReadReq_accesses::.switch_cpus.data     18302147                       # number of ReadReq accesses(hits+misses)
system.cpu.dcache.ReadReq_accesses::.switch_cpus_1.data    726718443                       # number of ReadReq accesses(hits+misses)
system.cpu.dcache.ReadReq_accesses::total   1029843698                       # number of ReadReq accesses(hits+misses)
system.cpu.dcache.ReadReq_miss_rate::.cpu.data     0.185529                       # miss rate for ReadReq accesses
system.cpu.dcache.ReadReq_miss_rate::.switch_cpus.data     0.267624                       # miss rate for ReadReq accesses
system.cpu.dcache.ReadReq_miss_rate::.switch_cpus_1.data     0.372452                       # miss rate for ReadReq accesses
system.cpu.dcache.ReadReq_miss_rate::total     0.318892                       # miss rate for ReadReq accesses
system.cpu.dcache.ReadReq_avg_miss_latency::.switch_cpus.data 76613.232478                       # average ReadReq miss latency
system.cpu.dcache.ReadReq_avg_miss_latency::.switch_cpus_1.data 74598.150266                       # average ReadReq miss latency
system.cpu.dcache.ReadReq_avg_miss_latency::total 62624.874365                       # average ReadReq miss latency
system.cpu.dcache.ReadReq_mshr_hits::.switch_cpus_1.data    170782065                       # number of ReadReq MSHR hits
system.cpu.dcache.ReadReq_mshr_hits::total    170782065                       # number of ReadReq MSHR hits
system.cpu.dcache.ReadReq_mshr_misses::.switch_cpus.data      4898100                       # number of ReadReq MSHR misses
system.cpu.dcache.ReadReq_mshr_misses::.switch_cpus_1.data     99885312                       # number of ReadReq MSHR misses
system.cpu.dcache.ReadReq_mshr_misses::total    104783412                       # number of ReadReq MSHR misses
system.cpu.dcache.ReadReq_mshr_miss_latency::.switch_cpus.data 370361174000                       # number of ReadReq MSHR miss cycles
system.cpu.dcache.ReadReq_mshr_miss_latency::.switch_cpus_1.data 8072644412500                       # number of ReadReq MSHR miss cycles
system.cpu.dcache.ReadReq_mshr_miss_latency::total 8443005586500                       # number of ReadReq MSHR miss cycles
system.cpu.dcache.ReadReq_mshr_miss_rate::.switch_cpus.data     0.267624                       # mshr miss rate for ReadReq accesses
system.cpu.dcache.ReadReq_mshr_miss_rate::.switch_cpus_1.data     0.137447                       # mshr miss rate for ReadReq accesses
system.cpu.dcache.ReadReq_mshr_miss_rate::total     0.101747                       # mshr miss rate for ReadReq accesses
system.cpu.dcache.ReadReq_avg_mshr_miss_latency::.switch_cpus.data 75613.232478                       # average ReadReq mshr miss latency
system.cpu.dcache.ReadReq_avg_mshr_miss_latency::.switch_cpus_1.data 80819.133973                       # average ReadReq mshr miss latency
system.cpu.dcache.ReadReq_avg_mshr_miss_latency::total 80575.784137                       # average ReadReq mshr miss latency
system.cpu.dcache.WriteReq_hits::.cpu.data     85898688                       # number of WriteReq hits
system.cpu.dcache.WriteReq_hits::.switch_cpus.data      2190297                       # number of WriteReq hits
system.cpu.dcache.WriteReq_hits::.switch_cpus_1.data     45897995                       # number of WriteReq hits
system.cpu.dcache.WriteReq_hits::total      133986980                       # number of WriteReq hits
system.cpu.dcache.WriteReq_misses::.cpu.data     12447378                       # number of WriteReq misses
system.cpu.dcache.WriteReq_misses::.switch_cpus.data      1239723                       # number of WriteReq misses
system.cpu.dcache.WriteReq_misses::.switch_cpus_1.data     24969762                       # number of WriteReq misses
system.cpu.dcache.WriteReq_misses::total     38656863                       # number of WriteReq misses
system.cpu.dcache.WriteReq_miss_latency::.switch_cpus.data  30958971500                       # number of WriteReq miss cycles
system.cpu.dcache.WriteReq_miss_latency::.switch_cpus_1.data 640444727700                       # number of WriteReq miss cycles
system.cpu.dcache.WriteReq_miss_latency::total 671403699200                       # number of WriteReq miss cycles
system.cpu.dcache.WriteReq_accesses::.cpu.data     98346066                       # number of WriteReq accesses(hits+misses)
system.cpu.dcache.WriteReq_accesses::.switch_cpus.data      3430020                       # number of WriteReq accesses(hits+misses)
system.cpu.dcache.WriteReq_accesses::.switch_cpus_1.data     70867757                       # number of WriteReq accesses(hits+misses)
system.cpu.dcache.WriteReq_accesses::total    172643843                       # number of WriteReq accesses(hits+misses)
system.cpu.dcache.WriteReq_miss_rate::.cpu.data     0.126567                       # miss rate for WriteReq accesses
system.cpu.dcache.WriteReq_miss_rate::.switch_cpus.data     0.361433                       # miss rate for WriteReq accesses
system.cpu.dcache.WriteReq_miss_rate::.switch_cpus_1.data     0.352343                       # miss rate for WriteReq accesses
system.cpu.dcache.WriteReq_miss_rate::total     0.223911                       # miss rate for WriteReq accesses
system.cpu.dcache.WriteReq_avg_miss_latency::.switch_cpus.data 24972.491032                       # average WriteReq miss latency
system.cpu.dcache.WriteReq_avg_miss_latency::.switch_cpus_1.data 25648.811859                       # average WriteReq miss latency
system.cpu.dcache.WriteReq_avg_miss_latency::total 17368.292383                       # average WriteReq miss latency
system.cpu.dcache.WriteReq_mshr_hits::.switch_cpus_1.data        18780                       # number of WriteReq MSHR hits
system.cpu.dcache.WriteReq_mshr_hits::total        18780                       # number of WriteReq MSHR hits
system.cpu.dcache.WriteReq_mshr_misses::.switch_cpus.data      1239723                       # number of WriteReq MSHR misses
system.cpu.dcache.WriteReq_mshr_misses::.switch_cpus_1.data     24950982                       # number of WriteReq MSHR misses
system.cpu.dcache.WriteReq_mshr_misses::total     26190705                       # number of WriteReq MSHR misses
system.cpu.dcache.WriteReq_mshr_miss_latency::.switch_cpus.data  29719248500                       # number of WriteReq MSHR miss cycles
system.cpu.dcache.WriteReq_mshr_miss_latency::.switch_cpus_1.data 615338664701                       # number of WriteReq MSHR miss cycles
system.cpu.dcache.WriteReq_mshr_miss_latency::total 645057913201                       # number of WriteReq MSHR miss cycles
system.cpu.dcache.WriteReq_mshr_miss_rate::.switch_cpus.data     0.361433                       # mshr miss rate for WriteReq accesses
system.cpu.dcache.WriteReq_mshr_miss_rate::.switch_cpus_1.data     0.352078                       # mshr miss rate for WriteReq accesses
system.cpu.dcache.WriteReq_mshr_miss_rate::total     0.151704                       # mshr miss rate for WriteReq accesses
system.cpu.dcache.WriteReq_avg_mshr_miss_latency::.switch_cpus.data 23972.491032                       # average WriteReq mshr miss latency
system.cpu.dcache.WriteReq_avg_mshr_miss_latency::.switch_cpus_1.data 24661.901672                       # average WriteReq mshr miss latency
system.cpu.dcache.WriteReq_avg_mshr_miss_latency::total 24629.268788                       # average WriteReq mshr miss latency
system.cpu.dcache.power_state.pwrStateResidencyTicks::UNDEFINED 5455503338000                       # Cumulative time (in ticks) in various power states
system.cpu.dcache.tags.tagsinuse           511.998643                       # Cycle average of tags in use
system.cpu.dcache.tags.total_refs          1041800309                       # Total number of references to valid blocks.
system.cpu.dcache.tags.sampled_refs         164101154                       # Sample count of references to valid blocks.
system.cpu.dcache.tags.avg_refs              6.348525                       # Average number of references to valid blocks.
system.cpu.dcache.tags.warmup_cycle              1500                       # Cycle when the warmup percentage was hit.
system.cpu.dcache.tags.occ_blocks::.cpu.data   100.445220                       # Average occupied blocks per requestor
system.cpu.dcache.tags.occ_blocks::.switch_cpus.data    45.407779                       # Average occupied blocks per requestor
system.cpu.dcache.tags.occ_blocks::.switch_cpus_1.data   366.145643                       # Average occupied blocks per requestor
system.cpu.dcache.tags.occ_percent::.cpu.data     0.196182                       # Average percentage of cache occupancy
system.cpu.dcache.tags.occ_percent::.switch_cpus.data     0.088687                       # Average percentage of cache occupancy
system.cpu.dcache.tags.occ_percent::.switch_cpus_1.data     0.715128                       # Average percentage of cache occupancy
system.cpu.dcache.tags.occ_percent::total     0.999997                       # Average percentage of cache occupancy
system.cpu.dcache.tags.occ_task_id_blocks::1024          512                       # Occupied blocks per task id
system.cpu.dcache.tags.age_task_id_blocks_1024::0          126                       # Occupied blocks per task id
system.cpu.dcache.tags.age_task_id_blocks_1024::1          385                       # Occupied blocks per task id
system.cpu.dcache.tags.age_task_id_blocks_1024::2            1                       # Occupied blocks per task id
system.cpu.dcache.tags.occ_task_id_percent::1024            1                       # Percentage of cache occupancy per task id
system.cpu.dcache.tags.tag_accesses        4974051318                       # Number of tag accesses
system.cpu.dcache.tags.data_accesses       4974051318                       # Number of data accesses
system.cpu.dcache.tags.power_state.pwrStateResidencyTicks::UNDEFINED 5455503338000                       # Cumulative time (in ticks) in various power states
system.cpu.power_state.numTransitions               2                       # Number of power state transitions
system.cpu.power_state.pwrStateResidencyTicks::ON 1070247824000                       # Cumulative time (in ticks) in various power states
system.cpu.power_state.pwrStateResidencyTicks::OFF 4385255514000                       # Cumulative time (in ticks) in various power states

---------- End Simulation Statistics   ----------
