
---------- Begin Simulation Statistics ----------
final_tick                               1431109240000                       # Number of ticks from beginning of simulation (restored from checkpoints and never reset)
host_inst_rate                                 207099                       # Simulator instruction rate (inst/s)
host_mem_usage                                4552104                       # Number of bytes of host memory used
host_op_rate                                   350974                       # Simulator op (including micro ops) rate (op/s)
host_seconds                                  6759.26                       # Real time elapsed on the host
host_tick_rate                               43451703                       # Simulator tick rate (ticks/s)
sim_freq                                 1000000000000                       # Frequency of simulated ticks
sim_insts                                  1399837585                       # Number of instructions simulated
sim_ops                                    2372328795                       # Number of ops (including micro ops) simulated
sim_seconds                                  0.293702                       # Number of seconds simulated
sim_ticks                                293701520250                       # Number of ticks simulated
system.cpu.committedInsts                           0                       # Number of instructions committed
system.cpu.committedOps                             0                       # Number of ops (including micro ops) committed
system.cpu.dtb.rdAccesses                           0                       # TLB accesses on read requests
system.cpu.dtb.rdMisses                             0                       # TLB misses on read requests
system.cpu.dtb.wrAccesses                           0                       # TLB accesses on write requests
system.cpu.dtb.wrMisses                             0                       # TLB misses on write requests
system.cpu.idle_fraction                            0                       # Percentage of idle cycles
system.cpu.itb.rdAccesses                           0                       # TLB accesses on read requests
system.cpu.itb.rdMisses                             0                       # TLB misses on read requests
system.cpu.itb.wrAccesses                           0                       # TLB accesses on write requests
system.cpu.itb.wrMisses                             0                       # TLB misses on write requests
system.cpu.not_idle_fraction                        1                       # Percentage of non-idle cycles
system.cpu.numCycles                                0                       # number of cpu cycles simulated
system.cpu.numWorkItemsCompleted                    0                       # number of work items this cpu completed
system.cpu.numWorkItemsStarted                      0                       # number of work items this cpu started
system.cpu.num_busy_cycles                          0                       # Number of busy cycles
system.cpu.num_conditional_control_insts            0                       # number of instructions that are conditional controls
system.cpu.num_fp_alu_accesses                      0                       # Number of float alu accesses
system.cpu.num_fp_insts                             0                       # number of float instructions
system.cpu.num_fp_register_reads                    0                       # number of times the floating registers were read
system.cpu.num_fp_register_writes                   0                       # number of times the floating registers were written
system.cpu.num_func_calls                           0                       # number of times a function call or return occured
system.cpu.num_idle_cycles                          0                       # Number of idle cycles
system.cpu.num_int_alu_accesses                     0                       # Number of integer alu accesses
system.cpu.num_int_insts                            0                       # number of integer instructions
system.cpu.num_int_register_reads                   0                       # number of times the integer registers were read
system.cpu.num_int_register_writes                  0                       # number of times the integer registers were written
system.cpu.num_load_insts                           0                       # Number of load instructions
system.cpu.num_mem_refs                             0                       # number of memory refs
system.cpu.num_store_insts                          0                       # Number of store instructions
system.cpu.num_vec_alu_accesses                     0                       # Number of vector alu accesses
system.cpu.num_vec_insts                            0                       # number of vector instructions
system.cpu.num_vec_register_reads                   0                       # number of times the vector registers were read
system.cpu.num_vec_register_writes                  0                       # number of times the vector registers were written
system.cpu.op_class::No_OpClass                     0                       # Class of executed instruction
system.cpu.op_class::IntAlu                         0                       # Class of executed instruction
system.cpu.op_class::IntMult                        0                       # Class of executed instruction
system.cpu.op_class::IntDiv                         0                       # Class of executed instruction
system.cpu.op_class::FloatAdd                       0                       # Class of executed instruction
system.cpu.op_class::FloatCmp                       0                       # Class of executed instruction
system.cpu.op_class::FloatCvt                       0                       # Class of executed instruction
system.cpu.op_class::FloatMult                      0                       # Class of executed instruction
system.cpu.op_class::FloatMultAcc                   0                       # Class of executed instruction
system.cpu.op_class::FloatDiv                       0                       # Class of executed instruction
system.cpu.op_class::FloatMisc                      0                       # Class of executed instruction
system.cpu.op_class::FloatSqrt                      0                       # Class of executed instruction
system.cpu.op_class::SimdAdd                        0                       # Class of executed instruction
system.cpu.op_class::SimdAddAcc                     0                       # Class of executed instruction
system.cpu.op_class::SimdAlu                        0                       # Class of executed instruction
system.cpu.op_class::SimdCmp                        0                       # Class of executed instruction
system.cpu.op_class::SimdCvt                        0                       # Class of executed instruction
system.cpu.op_class::SimdMisc                       0                       # Class of executed instruction
system.cpu.op_class::SimdMult                       0                       # Class of executed instruction
system.cpu.op_class::SimdMultAcc                    0                       # Class of executed instruction
system.cpu.op_class::SimdShift                      0                       # Class of executed instruction
system.cpu.op_class::SimdShiftAcc                   0                       # Class of executed instruction
system.cpu.op_class::SimdDiv                        0                       # Class of executed instruction
system.cpu.op_class::SimdSqrt                       0                       # Class of executed instruction
system.cpu.op_class::SimdFloatAdd                   0                       # Class of executed instruction
system.cpu.op_class::SimdFloatAlu                   0                       # Class of executed instruction
system.cpu.op_class::SimdFloatCmp                   0                       # Class of executed instruction
system.cpu.op_class::SimdFloatCvt                   0                       # Class of executed instruction
system.cpu.op_class::SimdFloatDiv                   0                       # Class of executed instruction
system.cpu.op_class::SimdFloatMisc                  0                       # Class of executed instruction
system.cpu.op_class::SimdFloatMult                  0                       # Class of executed instruction
system.cpu.op_class::SimdFloatMultAcc               0                       # Class of executed instruction
system.cpu.op_class::SimdFloatSqrt                  0                       # Class of executed instruction
system.cpu.op_class::SimdReduceAdd                  0                       # Class of executed instruction
system.cpu.op_class::SimdReduceAlu                  0                       # Class of executed instruction
system.cpu.op_class::SimdReduceCmp                  0                       # Class of executed instruction
system.cpu.op_class::SimdFloatReduceAdd             0                       # Class of executed instruction
system.cpu.op_class::SimdFloatReduceCmp             0                       # Class of executed instruction
system.cpu.op_class::SimdAes                        0                       # Class of executed instruction
system.cpu.op_class::SimdAesMix                     0                       # Class of executed instruction
system.cpu.op_class::SimdSha1Hash                   0                       # Class of executed instruction
system.cpu.op_class::SimdSha1Hash2                  0                       # Class of executed instruction
system.cpu.op_class::SimdSha256Hash                 0                       # Class of executed instruction
system.cpu.op_class::SimdSha256Hash2                0                       # Class of executed instruction
system.cpu.op_class::SimdShaSigma2                  0                       # Class of executed instruction
system.cpu.op_class::SimdShaSigma3                  0                       # Class of executed instruction
system.cpu.op_class::SimdPredAlu                    0                       # Class of executed instruction
system.cpu.op_class::MemRead                        0                       # Class of executed instruction
system.cpu.op_class::MemWrite                       0                       # Class of executed instruction
system.cpu.op_class::FloatMemRead                   0                       # Class of executed instruction
system.cpu.op_class::FloatMemWrite                  0                       # Class of executed instruction
system.cpu.op_class::IprAccess                      0                       # Class of executed instruction
system.cpu.op_class::InstPrefetch                   0                       # Class of executed instruction
system.cpu.op_class::total                          0                       # Class of executed instruction
system.cpu.workload.numSyscalls                     6                       # Number of system calls
system.membus.snoop_filter.hit_multi_requests            0                       # Number of requests hitting in the snoop filter with multiple (>1) holders of the requested data.
system.membus.snoop_filter.hit_multi_snoops            0                       # Number of snoops hitting in the snoop filter with multiple (>1) holders of the requested data.
system.membus.snoop_filter.hit_single_requests       806797                       # Number of requests hitting in the snoop filter with a single holder of the requested data.
system.membus.snoop_filter.hit_single_snoops            0                       # Number of snoops hitting in the snoop filter with a single holder of the requested data.
system.membus.snoop_filter.tot_requests       1614808                       # Total number of requests made to the snoop filter.
system.membus.snoop_filter.tot_snoops               0                       # Total number of snoops made to the snoop filter.
system.switch_cpus.committedInsts                   0                       # Number of instructions committed
system.switch_cpus.committedOps                     0                       # Number of ops (including micro ops) committed
system.switch_cpus.dtb.rdAccesses                   0                       # TLB accesses on read requests
system.switch_cpus.dtb.rdMisses                     0                       # TLB misses on read requests
system.switch_cpus.dtb.wrAccesses                   0                       # TLB accesses on write requests
system.switch_cpus.dtb.wrMisses                     0                       # TLB misses on write requests
system.switch_cpus.idle_fraction                    0                       # Percentage of idle cycles
system.switch_cpus.itb.rdAccesses                   0                       # TLB accesses on read requests
system.switch_cpus.itb.rdMisses                     0                       # TLB misses on read requests
system.switch_cpus.itb.wrAccesses                   0                       # TLB accesses on write requests
system.switch_cpus.itb.wrMisses                     0                       # TLB misses on write requests
system.switch_cpus.not_idle_fraction                1                       # Percentage of non-idle cycles
system.switch_cpus.numCycles                        0                       # number of cpu cycles simulated
system.switch_cpus.numWorkItemsCompleted            0                       # number of work items this cpu completed
system.switch_cpus.numWorkItemsStarted              0                       # number of work items this cpu started
system.switch_cpus.num_busy_cycles                  0                       # Number of busy cycles
system.switch_cpus.num_conditional_control_insts            0                       # number of instructions that are conditional controls
system.switch_cpus.num_fp_alu_accesses              0                       # Number of float alu accesses
system.switch_cpus.num_fp_insts                     0                       # number of float instructions
system.switch_cpus.num_fp_register_reads            0                       # number of times the floating registers were read
system.switch_cpus.num_fp_register_writes            0                       # number of times the floating registers were written
system.switch_cpus.num_func_calls                   0                       # number of times a function call or return occured
system.switch_cpus.num_idle_cycles                  0                       # Number of idle cycles
system.switch_cpus.num_int_alu_accesses             0                       # Number of integer alu accesses
system.switch_cpus.num_int_insts                    0                       # number of integer instructions
system.switch_cpus.num_int_register_reads            0                       # number of times the integer registers were read
system.switch_cpus.num_int_register_writes            0                       # number of times the integer registers were written
system.switch_cpus.num_load_insts                   0                       # Number of load instructions
system.switch_cpus.num_mem_refs                     0                       # number of memory refs
system.switch_cpus.num_store_insts                  0                       # Number of store instructions
system.switch_cpus.num_vec_alu_accesses             0                       # Number of vector alu accesses
system.switch_cpus.num_vec_insts                    0                       # number of vector instructions
system.switch_cpus.num_vec_register_reads            0                       # number of times the vector registers were read
system.switch_cpus.num_vec_register_writes            0                       # number of times the vector registers were written
system.switch_cpus.op_class::No_OpClass             0                       # Class of executed instruction
system.switch_cpus.op_class::IntAlu                 0                       # Class of executed instruction
system.switch_cpus.op_class::IntMult                0                       # Class of executed instruction
system.switch_cpus.op_class::IntDiv                 0                       # Class of executed instruction
system.switch_cpus.op_class::FloatAdd               0                       # Class of executed instruction
system.switch_cpus.op_class::FloatCmp               0                       # Class of executed instruction
system.switch_cpus.op_class::FloatCvt               0                       # Class of executed instruction
system.switch_cpus.op_class::FloatMult              0                       # Class of executed instruction
system.switch_cpus.op_class::FloatMultAcc            0                       # Class of executed instruction
system.switch_cpus.op_class::FloatDiv               0                       # Class of executed instruction
system.switch_cpus.op_class::FloatMisc              0                       # Class of executed instruction
system.switch_cpus.op_class::FloatSqrt              0                       # Class of executed instruction
system.switch_cpus.op_class::SimdAdd                0                       # Class of executed instruction
system.switch_cpus.op_class::SimdAddAcc             0                       # Class of executed instruction
system.switch_cpus.op_class::SimdAlu                0                       # Class of executed instruction
system.switch_cpus.op_class::SimdCmp                0                       # Class of executed instruction
system.switch_cpus.op_class::SimdCvt                0                       # Class of executed instruction
system.switch_cpus.op_class::SimdMisc               0                       # Class of executed instruction
system.switch_cpus.op_class::SimdMult               0                       # Class of executed instruction
system.switch_cpus.op_class::SimdMultAcc            0                       # Class of executed instruction
system.switch_cpus.op_class::SimdShift              0                       # Class of executed instruction
system.switch_cpus.op_class::SimdShiftAcc            0                       # Class of executed instruction
system.switch_cpus.op_class::SimdDiv                0                       # Class of executed instruction
system.switch_cpus.op_class::SimdSqrt               0                       # Class of executed instruction
system.switch_cpus.op_class::SimdFloatAdd            0                       # Class of executed instruction
system.switch_cpus.op_class::SimdFloatAlu            0                       # Class of executed instruction
system.switch_cpus.op_class::SimdFloatCmp            0                       # Class of executed instruction
system.switch_cpus.op_class::SimdFloatCvt            0                       # Class of executed instruction
system.switch_cpus.op_class::SimdFloatDiv            0                       # Class of executed instruction
system.switch_cpus.op_class::SimdFloatMisc            0                       # Class of executed instruction
system.switch_cpus.op_class::SimdFloatMult            0                       # Class of executed instruction
system.switch_cpus.op_class::SimdFloatMultAcc            0                       # Class of executed instruction
system.switch_cpus.op_class::SimdFloatSqrt            0                       # Class of executed instruction
system.switch_cpus.op_class::SimdReduceAdd            0                       # Class of executed instruction
system.switch_cpus.op_class::SimdReduceAlu            0                       # Class of executed instruction
system.switch_cpus.op_class::SimdReduceCmp            0                       # Class of executed instruction
system.switch_cpus.op_class::SimdFloatReduceAdd            0                       # Class of executed instruction
system.switch_cpus.op_class::SimdFloatReduceCmp            0                       # Class of executed instruction
system.switch_cpus.op_class::SimdAes                0                       # Class of executed instruction
system.switch_cpus.op_class::SimdAesMix             0                       # Class of executed instruction
system.switch_cpus.op_class::SimdSha1Hash            0                       # Class of executed instruction
system.switch_cpus.op_class::SimdSha1Hash2            0                       # Class of executed instruction
system.switch_cpus.op_class::SimdSha256Hash            0                       # Class of executed instruction
system.switch_cpus.op_class::SimdSha256Hash2            0                       # Class of executed instruction
system.switch_cpus.op_class::SimdShaSigma2            0                       # Class of executed instruction
system.switch_cpus.op_class::SimdShaSigma3            0                       # Class of executed instruction
system.switch_cpus.op_class::SimdPredAlu            0                       # Class of executed instruction
system.switch_cpus.op_class::MemRead                0                       # Class of executed instruction
system.switch_cpus.op_class::MemWrite               0                       # Class of executed instruction
system.switch_cpus.op_class::FloatMemRead            0                       # Class of executed instruction
system.switch_cpus.op_class::FloatMemWrite            0                       # Class of executed instruction
system.switch_cpus.op_class::IprAccess              0                       # Class of executed instruction
system.switch_cpus.op_class::InstPrefetch            0                       # Class of executed instruction
system.switch_cpus.op_class::total                  0                       # Class of executed instruction
system.switch_cpus_1.branchPred.BTBCorrect            0                       # Number of correct BTB predictions (this stat may not work properly.
system.switch_cpus_1.branchPred.BTBHitPct          nan                       # BTB Hit Percentage
system.switch_cpus_1.branchPred.BTBHits             0                       # Number of BTB hits
system.switch_cpus_1.branchPred.BTBLookups            0                       # Number of BTB lookups
system.switch_cpus_1.branchPred.RASInCorrect           46                       # Number of incorrect RAS predictions.
system.switch_cpus_1.branchPred.condIncorrect     10993777                       # Number of conditional branches incorrect
system.switch_cpus_1.branchPred.condPredicted    117327632                       # Number of conditional branches predicted
system.switch_cpus_1.branchPred.indirectHits     38308471                       # Number of indirect target hits.
system.switch_cpus_1.branchPred.indirectLookups     64249220                       # Number of indirect predictor lookups.
system.switch_cpus_1.branchPred.indirectMisses     25940749                       # Number of indirect misses.
system.switch_cpus_1.branchPred.lookups     124807089                       # Number of BP lookups
system.switch_cpus_1.branchPred.usedRAS       2642893                       # Number of times the RAS was used to get a target.
system.switch_cpus_1.branchPredindirectMispredicted      6145903                       # Number of mispredicted indirect branches.
system.switch_cpus_1.cc_regfile_reads       361299636                       # number of cc regfile reads
system.switch_cpus_1.cc_regfile_writes      313994368                       # number of cc regfile writes
system.switch_cpus_1.commit.amos                    0                       # Number of atomic instructions committed
system.switch_cpus_1.commit.branchMispredicts     10994228                       # The number of times a branch was mispredicted
system.switch_cpus_1.commit.branches         57167651                       # Number of branches committed
system.switch_cpus_1.commit.bw_lim_events     34357169                       # number cycles where commit BW limit reached
system.switch_cpus_1.commit.commitNonSpecStalls            6                       # The number of times commit has been forced to stall to communicate backwards
system.switch_cpus_1.commit.commitSquashedInsts    423964410                       # The number of squashed insts skipped by commit
system.switch_cpus_1.commit.committedInsts    349837583                       # Number of instructions committed
system.switch_cpus_1.commit.committedOps    591390416                       # Number of ops (including micro ops) committed
system.switch_cpus_1.commit.committed_per_cycle::samples    524691796                       # Number of insts commited each cycle
system.switch_cpus_1.commit.committed_per_cycle::mean     1.127120                       # Number of insts commited each cycle
system.switch_cpus_1.commit.committed_per_cycle::stdev     2.209741                       # Number of insts commited each cycle
system.switch_cpus_1.commit.committed_per_cycle::underflows            0      0.00%      0.00% # Number of insts commited each cycle
system.switch_cpus_1.commit.committed_per_cycle::0    346871047     66.11%     66.11% # Number of insts commited each cycle
system.switch_cpus_1.commit.committed_per_cycle::1     69319796     13.21%     79.32% # Number of insts commited each cycle
system.switch_cpus_1.commit.committed_per_cycle::2     22678445      4.32%     83.64% # Number of insts commited each cycle
system.switch_cpus_1.commit.committed_per_cycle::3     26459007      5.04%     88.69% # Number of insts commited each cycle
system.switch_cpus_1.commit.committed_per_cycle::4     13442875      2.56%     91.25% # Number of insts commited each cycle
system.switch_cpus_1.commit.committed_per_cycle::5      4483765      0.85%     92.10% # Number of insts commited each cycle
system.switch_cpus_1.commit.committed_per_cycle::6      3268812      0.62%     92.73% # Number of insts commited each cycle
system.switch_cpus_1.commit.committed_per_cycle::7      3810880      0.73%     93.45% # Number of insts commited each cycle
system.switch_cpus_1.commit.committed_per_cycle::8     34357169      6.55%    100.00% # Number of insts commited each cycle
system.switch_cpus_1.commit.committed_per_cycle::overflows            0      0.00%    100.00% # Number of insts commited each cycle
system.switch_cpus_1.commit.committed_per_cycle::min_value            0                       # Number of insts commited each cycle
system.switch_cpus_1.commit.committed_per_cycle::max_value            8                       # Number of insts commited each cycle
system.switch_cpus_1.commit.committed_per_cycle::total    524691796                       # Number of insts commited each cycle
system.switch_cpus_1.commit.fp_insts           157352                       # Number of committed floating point instructions.
system.switch_cpus_1.commit.function_calls      1587937                       # Number of function calls committed.
system.switch_cpus_1.commit.int_insts       590654157                       # Number of committed integer instructions.
system.switch_cpus_1.commit.loads           104027389                       # Number of loads committed
system.switch_cpus_1.commit.membars                 0                       # Number of memory barriers committed
system.switch_cpus_1.commit.op_class_0::No_OpClass       735700      0.12%      0.12% # Class of committed instruction
system.switch_cpus_1.commit.op_class_0::IntAlu    451836507     76.40%     76.53% # Class of committed instruction
system.switch_cpus_1.commit.op_class_0::IntMult          343      0.00%     76.53% # Class of committed instruction
system.switch_cpus_1.commit.op_class_0::IntDiv          153      0.00%     76.53% # Class of committed instruction
system.switch_cpus_1.commit.op_class_0::FloatAdd            8      0.00%     76.53% # Class of committed instruction
system.switch_cpus_1.commit.op_class_0::FloatCmp            0      0.00%     76.53% # Class of committed instruction
system.switch_cpus_1.commit.op_class_0::FloatCvt            0      0.00%     76.53% # Class of committed instruction
system.switch_cpus_1.commit.op_class_0::FloatMult            0      0.00%     76.53% # Class of committed instruction
system.switch_cpus_1.commit.op_class_0::FloatMultAcc            0      0.00%     76.53% # Class of committed instruction
system.switch_cpus_1.commit.op_class_0::FloatDiv            0      0.00%     76.53% # Class of committed instruction
system.switch_cpus_1.commit.op_class_0::FloatMisc            0      0.00%     76.53% # Class of committed instruction
system.switch_cpus_1.commit.op_class_0::FloatSqrt            0      0.00%     76.53% # Class of committed instruction
system.switch_cpus_1.commit.op_class_0::SimdAdd            0      0.00%     76.53% # Class of committed instruction
system.switch_cpus_1.commit.op_class_0::SimdAddAcc            0      0.00%     76.53% # Class of committed instruction
system.switch_cpus_1.commit.op_class_0::SimdAlu           32      0.00%     76.53% # Class of committed instruction
system.switch_cpus_1.commit.op_class_0::SimdCmp            0      0.00%     76.53% # Class of committed instruction
system.switch_cpus_1.commit.op_class_0::SimdCvt           56      0.00%     76.53% # Class of committed instruction
system.switch_cpus_1.commit.op_class_0::SimdMisc          112      0.00%     76.53% # Class of committed instruction
system.switch_cpus_1.commit.op_class_0::SimdMult            0      0.00%     76.53% # Class of committed instruction
system.switch_cpus_1.commit.op_class_0::SimdMultAcc            0      0.00%     76.53% # Class of committed instruction
system.switch_cpus_1.commit.op_class_0::SimdShift            0      0.00%     76.53% # Class of committed instruction
system.switch_cpus_1.commit.op_class_0::SimdShiftAcc            0      0.00%     76.53% # Class of committed instruction
system.switch_cpus_1.commit.op_class_0::SimdDiv            0      0.00%     76.53% # Class of committed instruction
system.switch_cpus_1.commit.op_class_0::SimdSqrt            0      0.00%     76.53% # Class of committed instruction
system.switch_cpus_1.commit.op_class_0::SimdFloatAdd            0      0.00%     76.53% # Class of committed instruction
system.switch_cpus_1.commit.op_class_0::SimdFloatAlu            0      0.00%     76.53% # Class of committed instruction
system.switch_cpus_1.commit.op_class_0::SimdFloatCmp            0      0.00%     76.53% # Class of committed instruction
system.switch_cpus_1.commit.op_class_0::SimdFloatCvt            0      0.00%     76.53% # Class of committed instruction
system.switch_cpus_1.commit.op_class_0::SimdFloatDiv            0      0.00%     76.53% # Class of committed instruction
system.switch_cpus_1.commit.op_class_0::SimdFloatMisc            0      0.00%     76.53% # Class of committed instruction
system.switch_cpus_1.commit.op_class_0::SimdFloatMult            0      0.00%     76.53% # Class of committed instruction
system.switch_cpus_1.commit.op_class_0::SimdFloatMultAcc            0      0.00%     76.53% # Class of committed instruction
system.switch_cpus_1.commit.op_class_0::SimdFloatSqrt            0      0.00%     76.53% # Class of committed instruction
system.switch_cpus_1.commit.op_class_0::SimdReduceAdd            0      0.00%     76.53% # Class of committed instruction
system.switch_cpus_1.commit.op_class_0::SimdReduceAlu            0      0.00%     76.53% # Class of committed instruction
system.switch_cpus_1.commit.op_class_0::SimdReduceCmp            0      0.00%     76.53% # Class of committed instruction
system.switch_cpus_1.commit.op_class_0::SimdFloatReduceAdd            0      0.00%     76.53% # Class of committed instruction
system.switch_cpus_1.commit.op_class_0::SimdFloatReduceCmp            0      0.00%     76.53% # Class of committed instruction
system.switch_cpus_1.commit.op_class_0::SimdAes            0      0.00%     76.53% # Class of committed instruction
system.switch_cpus_1.commit.op_class_0::SimdAesMix            0      0.00%     76.53% # Class of committed instruction
system.switch_cpus_1.commit.op_class_0::SimdSha1Hash            0      0.00%     76.53% # Class of committed instruction
system.switch_cpus_1.commit.op_class_0::SimdSha1Hash2            0      0.00%     76.53% # Class of committed instruction
system.switch_cpus_1.commit.op_class_0::SimdSha256Hash            0      0.00%     76.53% # Class of committed instruction
system.switch_cpus_1.commit.op_class_0::SimdSha256Hash2            0      0.00%     76.53% # Class of committed instruction
system.switch_cpus_1.commit.op_class_0::SimdShaSigma2            0      0.00%     76.53% # Class of committed instruction
system.switch_cpus_1.commit.op_class_0::SimdShaSigma3            0      0.00%     76.53% # Class of committed instruction
system.switch_cpus_1.commit.op_class_0::SimdPredAlu            0      0.00%     76.53% # Class of committed instruction
system.switch_cpus_1.commit.op_class_0::MemRead    104027355     17.59%     94.12% # Class of committed instruction
system.switch_cpus_1.commit.op_class_0::MemWrite     34633036      5.86%     99.97% # Class of committed instruction
system.switch_cpus_1.commit.op_class_0::FloatMemRead           34      0.00%     99.97% # Class of committed instruction
system.switch_cpus_1.commit.op_class_0::FloatMemWrite       157080      0.03%    100.00% # Class of committed instruction
system.switch_cpus_1.commit.op_class_0::IprAccess            0      0.00%    100.00% # Class of committed instruction
system.switch_cpus_1.commit.op_class_0::InstPrefetch            0      0.00%    100.00% # Class of committed instruction
system.switch_cpus_1.commit.op_class_0::total    591390416                       # Class of committed instruction
system.switch_cpus_1.commit.refs            138817505                       # Number of memory references committed
system.switch_cpus_1.commit.swp_count               0                       # Number of s/w prefetches committed
system.switch_cpus_1.commit.vec_insts               0                       # Number of committed Vector instructions.
system.switch_cpus_1.committedInsts         349837583                       # Number of Instructions Simulated
system.switch_cpus_1.committedOps           591390416                       # Number of Ops (including micro ops) Simulated
system.switch_cpus_1.cpi                     1.679074                       # CPI: Cycles Per Instruction
system.switch_cpus_1.cpi_total               1.679074                       # CPI: Total CPI of All Threads
system.switch_cpus_1.decode.BlockedCycles    343789973                       # Number of cycles decode is blocked
system.switch_cpus_1.decode.DecodedInsts   1178253026                       # Number of instructions handled by decode
system.switch_cpus_1.decode.IdleCycles       66944395                       # Number of cycles decode is idle
system.switch_cpus_1.decode.RunCycles       135009742                       # Number of cycles decode is running
system.switch_cpus_1.decode.SquashCycles     11025415                       # Number of cycles decode is squashing
system.switch_cpus_1.decode.UnblockCycles     30589216                       # Number of cycles decode is unblocking
system.switch_cpus_1.dtb.rdAccesses         147483236                       # TLB accesses on read requests
system.switch_cpus_1.dtb.rdMisses             1982584                       # TLB misses on read requests
system.switch_cpus_1.dtb.wrAccesses          44981938                       # TLB accesses on write requests
system.switch_cpus_1.dtb.wrMisses              517678                       # TLB misses on write requests
system.switch_cpus_1.fetch.Branches         124807089                       # Number of branches that fetch encountered
system.switch_cpus_1.fetch.CacheLines        83106947                       # Number of cache lines fetched
system.switch_cpus_1.fetch.Cycles           486150336                       # Number of cycles fetch has run and was not squashing or blocked
system.switch_cpus_1.fetch.IcacheSquashes      2536375                       # Number of outstanding Icache misses that were squashed
system.switch_cpus_1.fetch.IcacheWaitRetryStallCycles           29                       # Number of stall cycles due to full MSHR
system.switch_cpus_1.fetch.Insts            770127688                       # Number of instructions fetch has processed
system.switch_cpus_1.fetch.MiscStallCycles          470                       # Number of cycles fetch has spent waiting on interrupts, or bad addresses, or out of MSHRs
system.switch_cpus_1.fetch.PendingQuiesceStallCycles            6                       # Number of stall cycles due to pending quiesce instructions
system.switch_cpus_1.fetch.PendingTrapStallCycles         6716                       # Number of stall cycles due to pending traps
system.switch_cpus_1.fetch.SquashCycles      22050830                       # Number of cycles fetch has spent squashing
system.switch_cpus_1.fetch.TlbCycles                2                       # Number of cycles fetch has spent waiting for tlb
system.switch_cpus_1.fetch.branchRate        0.212473                       # Number of branch fetches per cycle
system.switch_cpus_1.fetch.icacheStallCycles     90175778                       # Number of cycles fetch is stalled on an Icache miss
system.switch_cpus_1.fetch.predictedBranches     40951364                       # Number of branches that fetch has predicted taken
system.switch_cpus_1.fetch.rate              1.311072                       # Number of inst fetches per cycle
system.switch_cpus_1.fetch.rateDist::samples    587358752                       # Number of instructions fetched each cycle (Total)
system.switch_cpus_1.fetch.rateDist::mean     2.180533                       # Number of instructions fetched each cycle (Total)
system.switch_cpus_1.fetch.rateDist::stdev     3.296764                       # Number of instructions fetched each cycle (Total)
system.switch_cpus_1.fetch.rateDist::underflows            0      0.00%      0.00% # Number of instructions fetched each cycle (Total)
system.switch_cpus_1.fetch.rateDist::0      382513100     65.12%     65.12% # Number of instructions fetched each cycle (Total)
system.switch_cpus_1.fetch.rateDist::1       11907732      2.03%     67.15% # Number of instructions fetched each cycle (Total)
system.switch_cpus_1.fetch.rateDist::2       15091642      2.57%     69.72% # Number of instructions fetched each cycle (Total)
system.switch_cpus_1.fetch.rateDist::3       11602676      1.98%     71.70% # Number of instructions fetched each cycle (Total)
system.switch_cpus_1.fetch.rateDist::4       10089411      1.72%     73.41% # Number of instructions fetched each cycle (Total)
system.switch_cpus_1.fetch.rateDist::5       18164144      3.09%     76.51% # Number of instructions fetched each cycle (Total)
system.switch_cpus_1.fetch.rateDist::6       10786742      1.84%     78.34% # Number of instructions fetched each cycle (Total)
system.switch_cpus_1.fetch.rateDist::7        9669345      1.65%     79.99% # Number of instructions fetched each cycle (Total)
system.switch_cpus_1.fetch.rateDist::8      117533960     20.01%    100.00% # Number of instructions fetched each cycle (Total)
system.switch_cpus_1.fetch.rateDist::overflows            0      0.00%    100.00% # Number of instructions fetched each cycle (Total)
system.switch_cpus_1.fetch.rateDist::min_value            0                       # Number of instructions fetched each cycle (Total)
system.switch_cpus_1.fetch.rateDist::max_value            8                       # Number of instructions fetched each cycle (Total)
system.switch_cpus_1.fetch.rateDist::total    587358752                       # Number of instructions fetched each cycle (Total)
system.switch_cpus_1.fp_regfile_reads          279225                       # number of floating regfile reads
system.switch_cpus_1.fp_regfile_writes          78453                       # number of floating regfile writes
system.switch_cpus_1.idleCycles                 44288                       # Total number of cycles that the CPU has spent unscheduled due to idling
system.switch_cpus_1.iew.branchMispredicts     13219337                       # Number of branch mispredicts detected at execute
system.switch_cpus_1.iew.exec_branches       73844487                       # Number of branches executed
system.switch_cpus_1.iew.exec_nop                   0                       # number of nop insts executed
system.switch_cpus_1.iew.exec_rate           1.439386                       # Inst execution rate
system.switch_cpus_1.iew.exec_refs          195667527                       # number of memory reference insts executed
system.switch_cpus_1.iew.exec_stores         44975603                       # Number of stores executed
system.switch_cpus_1.iew.exec_swp                   0                       # number of swp insts executed
system.switch_cpus_1.iew.iewBlockCycles     131471116                       # Number of cycles IEW is blocking
system.switch_cpus_1.iew.iewDispLoadInsts    181981493                       # Number of dispatched load instructions
system.switch_cpus_1.iew.iewDispNonSpecInsts           80                       # Number of dispatched non-speculative instructions
system.switch_cpus_1.iew.iewDispSquashedInsts       950314                       # Number of squashed instructions skipped by dispatch
system.switch_cpus_1.iew.iewDispStoreInsts     65229163                       # Number of dispatched store instructions
system.switch_cpus_1.iew.iewDispatchedInsts   1015245131                       # Number of instructions dispatched to IQ
system.switch_cpus_1.iew.iewExecLoadInsts    150691924                       # Number of load instructions executed
system.switch_cpus_1.iew.iewExecSquashedInsts     27079264                       # Number of squashed instructions skipped in execute
system.switch_cpus_1.iew.iewExecutedInsts    845499810                       # Number of executed instructions
system.switch_cpus_1.iew.iewIQFullEvents      1171582                       # Number of times the IQ has become full, causing a stall
system.switch_cpus_1.iew.iewIdleCycles              0                       # Number of cycles IEW is idle
system.switch_cpus_1.iew.iewLSQFullEvents     32884154                       # Number of times the LSQ has become full, causing a stall
system.switch_cpus_1.iew.iewSquashCycles     11025415                       # Number of cycles IEW is squashing
system.switch_cpus_1.iew.iewUnblockCycles     35037294                       # Number of cycles IEW is unblocking
system.switch_cpus_1.iew.lsq.thread0.blockedLoads            0                       # Number of blocked loads due to partial load-store forwarding
system.switch_cpus_1.iew.lsq.thread0.cacheBlocked      1003322                       # Number of times an access to memory failed due to the cache being blocked
system.switch_cpus_1.iew.lsq.thread0.forwLoads     14012770                       # Number of loads that had data forwarded from stores
system.switch_cpus_1.iew.lsq.thread0.ignoredResponses        70565                       # Number of memory responses ignored because the instruction is squashed
system.switch_cpus_1.iew.lsq.thread0.invAddrLoads            0                       # Number of loads ignored due to an invalid address
system.switch_cpus_1.iew.lsq.thread0.invAddrSwpfs            0                       # Number of software prefetches ignored due to an invalid address
system.switch_cpus_1.iew.lsq.thread0.memOrderViolation        39678                       # Number of memory ordering violations
system.switch_cpus_1.iew.lsq.thread0.rescheduledLoads        53784                       # Number of loads that were rescheduled
system.switch_cpus_1.iew.lsq.thread0.squashedLoads     77954104                       # Number of loads squashed
system.switch_cpus_1.iew.lsq.thread0.squashedStores     30439047                       # Number of stores squashed
system.switch_cpus_1.iew.memOrderViolationEvents        39678                       # Number of memory order violations
system.switch_cpus_1.iew.predictedNotTakenIncorrect     11900865                       # Number of branches that were predicted not taken incorrectly
system.switch_cpus_1.iew.predictedTakenIncorrect      1318472                       # Number of branches that were predicted taken incorrectly
system.switch_cpus_1.iew.wb_consumers       955506014                       # num instructions consuming a value
system.switch_cpus_1.iew.wb_count           825282837                       # cumulative count of insts written-back
system.switch_cpus_1.iew.wb_fanout           0.664223                       # average fanout of values written-back
system.switch_cpus_1.iew.wb_producers       634669087                       # num instructions producing a value
system.switch_cpus_1.iew.wb_rate             1.404969                       # insts written-back per cycle
system.switch_cpus_1.iew.wb_sent            831091363                       # cumulative count of insts sent to commit
system.switch_cpus_1.int_regfile_reads     1293417756                       # number of integer regfile reads
system.switch_cpus_1.int_regfile_writes     708779805                       # number of integer regfile writes
system.switch_cpus_1.ipc                     0.595567                       # IPC: Instructions Per Cycle
system.switch_cpus_1.ipc_total               0.595567                       # IPC: Total IPC of All Threads
system.switch_cpus_1.iq.FU_type_0::No_OpClass      3059188      0.35%      0.35% # Type of FU issued
system.switch_cpus_1.iq.FU_type_0::IntAlu    663800195     76.07%     76.42% # Type of FU issued
system.switch_cpus_1.iq.FU_type_0::IntMult          367      0.00%     76.42% # Type of FU issued
system.switch_cpus_1.iq.FU_type_0::IntDiv          158      0.00%     76.42% # Type of FU issued
system.switch_cpus_1.iq.FU_type_0::FloatAdd           11      0.00%     76.42% # Type of FU issued
system.switch_cpus_1.iq.FU_type_0::FloatCmp            0      0.00%     76.42% # Type of FU issued
system.switch_cpus_1.iq.FU_type_0::FloatCvt         6287      0.00%     76.42% # Type of FU issued
system.switch_cpus_1.iq.FU_type_0::FloatMult            0      0.00%     76.42% # Type of FU issued
system.switch_cpus_1.iq.FU_type_0::FloatMultAcc            0      0.00%     76.42% # Type of FU issued
system.switch_cpus_1.iq.FU_type_0::FloatDiv            0      0.00%     76.42% # Type of FU issued
system.switch_cpus_1.iq.FU_type_0::FloatMisc            0      0.00%     76.42% # Type of FU issued
system.switch_cpus_1.iq.FU_type_0::FloatSqrt            0      0.00%     76.42% # Type of FU issued
system.switch_cpus_1.iq.FU_type_0::SimdAdd            0      0.00%     76.42% # Type of FU issued
system.switch_cpus_1.iq.FU_type_0::SimdAddAcc            0      0.00%     76.42% # Type of FU issued
system.switch_cpus_1.iq.FU_type_0::SimdAlu           44      0.00%     76.42% # Type of FU issued
system.switch_cpus_1.iq.FU_type_0::SimdCmp            0      0.00%     76.42% # Type of FU issued
system.switch_cpus_1.iq.FU_type_0::SimdCvt           66      0.00%     76.42% # Type of FU issued
system.switch_cpus_1.iq.FU_type_0::SimdMisc       104986      0.01%     76.44% # Type of FU issued
system.switch_cpus_1.iq.FU_type_0::SimdMult            0      0.00%     76.44% # Type of FU issued
system.switch_cpus_1.iq.FU_type_0::SimdMultAcc            0      0.00%     76.44% # Type of FU issued
system.switch_cpus_1.iq.FU_type_0::SimdShift            0      0.00%     76.44% # Type of FU issued
system.switch_cpus_1.iq.FU_type_0::SimdShiftAcc            0      0.00%     76.44% # Type of FU issued
system.switch_cpus_1.iq.FU_type_0::SimdDiv            0      0.00%     76.44% # Type of FU issued
system.switch_cpus_1.iq.FU_type_0::SimdSqrt            0      0.00%     76.44% # Type of FU issued
system.switch_cpus_1.iq.FU_type_0::SimdFloatAdd            0      0.00%     76.44% # Type of FU issued
system.switch_cpus_1.iq.FU_type_0::SimdFloatAlu            0      0.00%     76.44% # Type of FU issued
system.switch_cpus_1.iq.FU_type_0::SimdFloatCmp            0      0.00%     76.44% # Type of FU issued
system.switch_cpus_1.iq.FU_type_0::SimdFloatCvt        39872      0.00%     76.44% # Type of FU issued
system.switch_cpus_1.iq.FU_type_0::SimdFloatDiv            0      0.00%     76.44% # Type of FU issued
system.switch_cpus_1.iq.FU_type_0::SimdFloatMisc            0      0.00%     76.44% # Type of FU issued
system.switch_cpus_1.iq.FU_type_0::SimdFloatMult            0      0.00%     76.44% # Type of FU issued
system.switch_cpus_1.iq.FU_type_0::SimdFloatMultAcc            0      0.00%     76.44% # Type of FU issued
system.switch_cpus_1.iq.FU_type_0::SimdFloatSqrt            0      0.00%     76.44% # Type of FU issued
system.switch_cpus_1.iq.FU_type_0::SimdReduceAdd            0      0.00%     76.44% # Type of FU issued
system.switch_cpus_1.iq.FU_type_0::SimdReduceAlu            0      0.00%     76.44% # Type of FU issued
system.switch_cpus_1.iq.FU_type_0::SimdReduceCmp            0      0.00%     76.44% # Type of FU issued
system.switch_cpus_1.iq.FU_type_0::SimdFloatReduceAdd            0      0.00%     76.44% # Type of FU issued
system.switch_cpus_1.iq.FU_type_0::SimdFloatReduceCmp            0      0.00%     76.44% # Type of FU issued
system.switch_cpus_1.iq.FU_type_0::SimdAes            0      0.00%     76.44% # Type of FU issued
system.switch_cpus_1.iq.FU_type_0::SimdAesMix            0      0.00%     76.44% # Type of FU issued
system.switch_cpus_1.iq.FU_type_0::SimdSha1Hash            0      0.00%     76.44% # Type of FU issued
system.switch_cpus_1.iq.FU_type_0::SimdSha1Hash2            0      0.00%     76.44% # Type of FU issued
system.switch_cpus_1.iq.FU_type_0::SimdSha256Hash            0      0.00%     76.44% # Type of FU issued
system.switch_cpus_1.iq.FU_type_0::SimdSha256Hash2            0      0.00%     76.44% # Type of FU issued
system.switch_cpus_1.iq.FU_type_0::SimdShaSigma2            0      0.00%     76.44% # Type of FU issued
system.switch_cpus_1.iq.FU_type_0::SimdShaSigma3            0      0.00%     76.44% # Type of FU issued
system.switch_cpus_1.iq.FU_type_0::SimdPredAlu            0      0.00%     76.44% # Type of FU issued
system.switch_cpus_1.iq.FU_type_0::MemRead    158157177     18.13%     94.57% # Type of FU issued
system.switch_cpus_1.iq.FU_type_0::MemWrite     47253400      5.42%     99.98% # Type of FU issued
system.switch_cpus_1.iq.FU_type_0::FloatMemRead           59      0.00%     99.98% # Type of FU issued
system.switch_cpus_1.iq.FU_type_0::FloatMemWrite       157264      0.02%    100.00% # Type of FU issued
system.switch_cpus_1.iq.FU_type_0::IprAccess            0      0.00%    100.00% # Type of FU issued
system.switch_cpus_1.iq.FU_type_0::InstPrefetch            0      0.00%    100.00% # Type of FU issued
system.switch_cpus_1.iq.FU_type_0::total    872579074                       # Type of FU issued
system.switch_cpus_1.iq.fp_alu_accesses        308693                       # Number of floating point alu accesses
system.switch_cpus_1.iq.fp_inst_queue_reads       621024                       # Number of floating instruction queue reads
system.switch_cpus_1.iq.fp_inst_queue_wakeup_accesses       241652                       # Number of floating instruction queue wakeup accesses
system.switch_cpus_1.iq.fp_inst_queue_writes       961418                       # Number of floating instruction queue writes
system.switch_cpus_1.iq.fu_busy_cnt           9502501                       # FU busy when requested
system.switch_cpus_1.iq.fu_busy_rate         0.010890                       # FU busy rate (busy events/executed inst)
system.switch_cpus_1.iq.fu_full::No_OpClass            0      0.00%      0.00% # attempts to use FU when none available
system.switch_cpus_1.iq.fu_full::IntAlu       7460542     78.51%     78.51% # attempts to use FU when none available
system.switch_cpus_1.iq.fu_full::IntMult            0      0.00%     78.51% # attempts to use FU when none available
system.switch_cpus_1.iq.fu_full::IntDiv             0      0.00%     78.51% # attempts to use FU when none available
system.switch_cpus_1.iq.fu_full::FloatAdd            0      0.00%     78.51% # attempts to use FU when none available
system.switch_cpus_1.iq.fu_full::FloatCmp            0      0.00%     78.51% # attempts to use FU when none available
system.switch_cpus_1.iq.fu_full::FloatCvt            7      0.00%     78.51% # attempts to use FU when none available
system.switch_cpus_1.iq.fu_full::FloatMult            0      0.00%     78.51% # attempts to use FU when none available
system.switch_cpus_1.iq.fu_full::FloatMultAcc            0      0.00%     78.51% # attempts to use FU when none available
system.switch_cpus_1.iq.fu_full::FloatDiv            0      0.00%     78.51% # attempts to use FU when none available
system.switch_cpus_1.iq.fu_full::FloatMisc            0      0.00%     78.51% # attempts to use FU when none available
system.switch_cpus_1.iq.fu_full::FloatSqrt            0      0.00%     78.51% # attempts to use FU when none available
system.switch_cpus_1.iq.fu_full::SimdAdd            0      0.00%     78.51% # attempts to use FU when none available
system.switch_cpus_1.iq.fu_full::SimdAddAcc            0      0.00%     78.51% # attempts to use FU when none available
system.switch_cpus_1.iq.fu_full::SimdAlu            1      0.00%     78.51% # attempts to use FU when none available
system.switch_cpus_1.iq.fu_full::SimdCmp            0      0.00%     78.51% # attempts to use FU when none available
system.switch_cpus_1.iq.fu_full::SimdCvt            3      0.00%     78.51% # attempts to use FU when none available
system.switch_cpus_1.iq.fu_full::SimdMisc            0      0.00%     78.51% # attempts to use FU when none available
system.switch_cpus_1.iq.fu_full::SimdMult            0      0.00%     78.51% # attempts to use FU when none available
system.switch_cpus_1.iq.fu_full::SimdMultAcc            0      0.00%     78.51% # attempts to use FU when none available
system.switch_cpus_1.iq.fu_full::SimdShift            0      0.00%     78.51% # attempts to use FU when none available
system.switch_cpus_1.iq.fu_full::SimdShiftAcc            0      0.00%     78.51% # attempts to use FU when none available
system.switch_cpus_1.iq.fu_full::SimdDiv            0      0.00%     78.51% # attempts to use FU when none available
system.switch_cpus_1.iq.fu_full::SimdSqrt            0      0.00%     78.51% # attempts to use FU when none available
system.switch_cpus_1.iq.fu_full::SimdFloatAdd            0      0.00%     78.51% # attempts to use FU when none available
system.switch_cpus_1.iq.fu_full::SimdFloatAlu            0      0.00%     78.51% # attempts to use FU when none available
system.switch_cpus_1.iq.fu_full::SimdFloatCmp            0      0.00%     78.51% # attempts to use FU when none available
system.switch_cpus_1.iq.fu_full::SimdFloatCvt            0      0.00%     78.51% # attempts to use FU when none available
system.switch_cpus_1.iq.fu_full::SimdFloatDiv            0      0.00%     78.51% # attempts to use FU when none available
system.switch_cpus_1.iq.fu_full::SimdFloatMisc            0      0.00%     78.51% # attempts to use FU when none available
system.switch_cpus_1.iq.fu_full::SimdFloatMult            0      0.00%     78.51% # attempts to use FU when none available
system.switch_cpus_1.iq.fu_full::SimdFloatMultAcc            0      0.00%     78.51% # attempts to use FU when none available
system.switch_cpus_1.iq.fu_full::SimdFloatSqrt            0      0.00%     78.51% # attempts to use FU when none available
system.switch_cpus_1.iq.fu_full::SimdReduceAdd            0      0.00%     78.51% # attempts to use FU when none available
system.switch_cpus_1.iq.fu_full::SimdReduceAlu            0      0.00%     78.51% # attempts to use FU when none available
system.switch_cpus_1.iq.fu_full::SimdReduceCmp            0      0.00%     78.51% # attempts to use FU when none available
system.switch_cpus_1.iq.fu_full::SimdFloatReduceAdd            0      0.00%     78.51% # attempts to use FU when none available
system.switch_cpus_1.iq.fu_full::SimdFloatReduceCmp            0      0.00%     78.51% # attempts to use FU when none available
system.switch_cpus_1.iq.fu_full::SimdAes            0      0.00%     78.51% # attempts to use FU when none available
system.switch_cpus_1.iq.fu_full::SimdAesMix            0      0.00%     78.51% # attempts to use FU when none available
system.switch_cpus_1.iq.fu_full::SimdSha1Hash            0      0.00%     78.51% # attempts to use FU when none available
system.switch_cpus_1.iq.fu_full::SimdSha1Hash2            0      0.00%     78.51% # attempts to use FU when none available
system.switch_cpus_1.iq.fu_full::SimdSha256Hash            0      0.00%     78.51% # attempts to use FU when none available
system.switch_cpus_1.iq.fu_full::SimdSha256Hash2            0      0.00%     78.51% # attempts to use FU when none available
system.switch_cpus_1.iq.fu_full::SimdShaSigma2            0      0.00%     78.51% # attempts to use FU when none available
system.switch_cpus_1.iq.fu_full::SimdShaSigma3            0      0.00%     78.51% # attempts to use FU when none available
system.switch_cpus_1.iq.fu_full::SimdPredAlu            0      0.00%     78.51% # attempts to use FU when none available
system.switch_cpus_1.iq.fu_full::MemRead      1959980     20.63%     99.14% # attempts to use FU when none available
system.switch_cpus_1.iq.fu_full::MemWrite        81912      0.86%    100.00% # attempts to use FU when none available
system.switch_cpus_1.iq.fu_full::FloatMemRead            2      0.00%    100.00% # attempts to use FU when none available
system.switch_cpus_1.iq.fu_full::FloatMemWrite           54      0.00%    100.00% # attempts to use FU when none available
system.switch_cpus_1.iq.fu_full::IprAccess            0      0.00%    100.00% # attempts to use FU when none available
system.switch_cpus_1.iq.fu_full::InstPrefetch            0      0.00%    100.00% # attempts to use FU when none available
system.switch_cpus_1.iq.int_alu_accesses    878713694                       # Number of integer alu accesses
system.switch_cpus_1.iq.int_inst_queue_reads   2343711184                       # Number of integer instruction queue reads
system.switch_cpus_1.iq.int_inst_queue_wakeup_accesses    825041185                       # Number of integer instruction queue wakeup accesses
system.switch_cpus_1.iq.int_inst_queue_writes   1438175583                       # Number of integer instruction queue writes
system.switch_cpus_1.iq.iqInstsAdded       1015244914                       # Number of instructions added to the IQ (excludes non-spec)
system.switch_cpus_1.iq.iqInstsIssued       872579074                       # Number of instructions issued
system.switch_cpus_1.iq.iqNonSpecInstsAdded          217                       # Number of non-speculative instructions added to the IQ
system.switch_cpus_1.iq.iqSquashedInstsExamined    423854714                       # Number of squashed instructions iterated over during squash; mainly for profiling
system.switch_cpus_1.iq.iqSquashedInstsIssued      2312807                       # Number of squashed instructions issued
system.switch_cpus_1.iq.iqSquashedNonSpecRemoved          211                       # Number of squashed non-spec instructions that were removed
system.switch_cpus_1.iq.iqSquashedOperandsExamined    615342119                       # Number of squashed operands that are examined and possibly removed from graph
system.switch_cpus_1.iq.issued_per_cycle::samples    587358752                       # Number of insts issued each cycle
system.switch_cpus_1.iq.issued_per_cycle::mean     1.485598                       # Number of insts issued each cycle
system.switch_cpus_1.iq.issued_per_cycle::stdev     2.129306                       # Number of insts issued each cycle
system.switch_cpus_1.iq.issued_per_cycle::underflows            0      0.00%      0.00% # Number of insts issued each cycle
system.switch_cpus_1.iq.issued_per_cycle::0    326555909     55.60%     55.60% # Number of insts issued each cycle
system.switch_cpus_1.iq.issued_per_cycle::1     60022103     10.22%     65.82% # Number of insts issued each cycle
system.switch_cpus_1.iq.issued_per_cycle::2     51290177      8.73%     74.55% # Number of insts issued each cycle
system.switch_cpus_1.iq.issued_per_cycle::3     37729534      6.42%     80.97% # Number of insts issued each cycle
system.switch_cpus_1.iq.issued_per_cycle::4     36089782      6.14%     87.12% # Number of insts issued each cycle
system.switch_cpus_1.iq.issued_per_cycle::5     29762757      5.07%     92.18% # Number of insts issued each cycle
system.switch_cpus_1.iq.issued_per_cycle::6     24873832      4.23%     96.42% # Number of insts issued each cycle
system.switch_cpus_1.iq.issued_per_cycle::7     13905154      2.37%     98.79% # Number of insts issued each cycle
system.switch_cpus_1.iq.issued_per_cycle::8      7129504      1.21%    100.00% # Number of insts issued each cycle
system.switch_cpus_1.iq.issued_per_cycle::overflows            0      0.00%    100.00% # Number of insts issued each cycle
system.switch_cpus_1.iq.issued_per_cycle::min_value            0                       # Number of insts issued each cycle
system.switch_cpus_1.iq.issued_per_cycle::max_value            8                       # Number of insts issued each cycle
system.switch_cpus_1.iq.issued_per_cycle::total    587358752                       # Number of insts issued each cycle
system.switch_cpus_1.iq.rate                 1.485486                       # Inst issue rate
system.switch_cpus_1.iq.vec_alu_accesses            0                       # Number of vector alu accesses
system.switch_cpus_1.iq.vec_inst_queue_reads            0                       # Number of vector instruction queue reads
system.switch_cpus_1.iq.vec_inst_queue_wakeup_accesses            0                       # Number of vector instruction queue wakeup accesses
system.switch_cpus_1.iq.vec_inst_queue_writes            0                       # Number of vector instruction queue writes
system.switch_cpus_1.itb.rdAccesses                 0                       # TLB accesses on read requests
system.switch_cpus_1.itb.rdMisses                   0                       # TLB misses on read requests
system.switch_cpus_1.itb.wrAccesses          83107594                       # TLB accesses on write requests
system.switch_cpus_1.itb.wrMisses                 711                       # TLB misses on write requests
system.switch_cpus_1.memDep0.conflictingLoads     30676725                       # Number of conflicting loads.
system.switch_cpus_1.memDep0.conflictingStores     17963730                       # Number of conflicting stores.
system.switch_cpus_1.memDep0.insertedLoads    181981493                       # Number of loads inserted to the mem dependence unit.
system.switch_cpus_1.memDep0.insertedStores     65229163                       # Number of stores inserted to the mem dependence unit.
system.switch_cpus_1.misc_regfile_reads     361540789                       # number of misc regfile reads
system.switch_cpus_1.numCycles              587403040                       # number of cpu cycles simulated
system.switch_cpus_1.numWorkItemsCompleted            0                       # number of work items this cpu completed
system.switch_cpus_1.numWorkItemsStarted            0                       # number of work items this cpu started
system.switch_cpus_1.rename.BlockCycles     216909999                       # Number of cycles rename is blocking
system.switch_cpus_1.rename.CommittedMaps    743940138                       # Number of HB maps that are committed
system.switch_cpus_1.rename.IQFullEvents     45487771                       # Number of times rename has blocked due to IQ full
system.switch_cpus_1.rename.IdleCycles       83061598                       # Number of cycles rename is idle
system.switch_cpus_1.rename.LQFullEvents     19218107                       # Number of times rename has blocked due to LQ full
system.switch_cpus_1.rename.ROBFullEvents      4237431                       # Number of times rename has blocked due to ROB full
system.switch_cpus_1.rename.RenameLookups   2850142432                       # Number of register rename lookups that rename has made
system.switch_cpus_1.rename.RenamedInsts   1121015157                       # Number of instructions processed by rename
system.switch_cpus_1.rename.RenamedOperands   1362141005                       # Number of destination operands rename has renamed
system.switch_cpus_1.rename.RunCycles       146876140                       # Number of cycles rename is running
system.switch_cpus_1.rename.SQFullEvents     56986107                       # Number of times rename has blocked due to SQ full
system.switch_cpus_1.rename.SquashCycles     11025415                       # Number of cycles rename is squashing
system.switch_cpus_1.rename.UnblockCycles    129485200                       # Number of cycles rename is unblocking
system.switch_cpus_1.rename.UndoneMaps      618200867                       # Number of HB maps that are undone due to squashing
system.switch_cpus_1.rename.fp_rename_lookups      2397242                       # Number of floating rename lookups
system.switch_cpus_1.rename.int_rename_lookups   1820011216                       # Number of integer rename lookups
system.switch_cpus_1.rename.serializeStallCycles          390                       # count of cycles rename stalled for serializing inst
system.switch_cpus_1.rename.serializingInsts            8                       # count of serializing insts renamed
system.switch_cpus_1.rename.skidInsts       141870828                       # count of insts added to the skid buffer
system.switch_cpus_1.rename.tempSerializingInsts            8                       # count of temporary serializing insts renamed
system.switch_cpus_1.rob.rob_reads         1505686879                       # The number of ROB reads
system.switch_cpus_1.rob.rob_writes        2094215907                       # The number of ROB writes
system.switch_cpus_1.timesIdled                   336                       # Number of times that the entire CPU went into an idle state and unscheduled itself
system.tol2bus.snoop_filter.hit_multi_requests            0                       # Number of requests hitting in the snoop filter with multiple (>1) holders of the requested data.
system.tol2bus.snoop_filter.hit_multi_snoops            0                       # Number of snoops hitting in the snoop filter with multiple (>1) holders of the requested data.
system.tol2bus.snoop_filter.hit_single_requests      5769214                       # Number of requests hitting in the snoop filter with a single holder of the requested data.
system.tol2bus.snoop_filter.hit_single_snoops        64948                       # Number of snoops hitting in the snoop filter with a single holder of the requested data.
system.tol2bus.snoop_filter.tot_requests     11337470                       # Total number of requests made to the snoop filter.
system.tol2bus.snoop_filter.tot_snoops          64948                       # Total number of snoops made to the snoop filter.
system.tol3bus.snoop_filter.hit_multi_requests            0                       # Number of requests hitting in the snoop filter with multiple (>1) holders of the requested data.
system.tol3bus.snoop_filter.hit_multi_snoops            0                       # Number of snoops hitting in the snoop filter with multiple (>1) holders of the requested data.
system.tol3bus.snoop_filter.hit_single_requests      5003220                       # Number of requests hitting in the snoop filter with a single holder of the requested data.
system.tol3bus.snoop_filter.hit_single_snoops       324799                       # Number of snoops hitting in the snoop filter with a single holder of the requested data.
system.tol3bus.snoop_filter.tot_requests      9919496                       # Total number of requests made to the snoop filter.
system.tol3bus.snoop_filter.tot_snoops         324799                       # Total number of snoops made to the snoop filter.
system.membus.trans_dist::ReadResp             476335                       # Transaction distribution
system.membus.trans_dist::WritebackDirty       483074                       # Transaction distribution
system.membus.trans_dist::CleanEvict           323645                       # Transaction distribution
system.membus.trans_dist::UpgradeReq               78                       # Transaction distribution
system.membus.trans_dist::ReadExReq            331676                       # Transaction distribution
system.membus.trans_dist::ReadExResp           331676                       # Transaction distribution
system.membus.trans_dist::ReadSharedReq        476335                       # Transaction distribution
system.membus.pkt_count_system.l3.mem_side::system.mem_ctrls.port      2422819                       # Packet count per connected master and slave (bytes)
system.membus.pkt_count_system.l3.mem_side::total      2422819                       # Packet count per connected master and slave (bytes)
system.membus.pkt_count::total                2422819                       # Packet count per connected master and slave (bytes)
system.membus.pkt_size_system.l3.mem_side::system.mem_ctrls.port     82629440                       # Cumulative packet size per connected master and slave (bytes)
system.membus.pkt_size_system.l3.mem_side::total     82629440                       # Cumulative packet size per connected master and slave (bytes)
system.membus.pkt_size::total                82629440                       # Cumulative packet size per connected master and slave (bytes)
system.membus.snoops                                0                       # Total snoops (count)
system.membus.snoopTraffic                          0                       # Total snoop traffic (bytes)
system.membus.snoop_fanout::samples            808089                       # Request fanout histogram
system.membus.snoop_fanout::mean                    0                       # Request fanout histogram
system.membus.snoop_fanout::stdev                   0                       # Request fanout histogram
system.membus.snoop_fanout::underflows              0      0.00%      0.00% # Request fanout histogram
system.membus.snoop_fanout::0                  808089    100.00%    100.00% # Request fanout histogram
system.membus.snoop_fanout::1                       0      0.00%    100.00% # Request fanout histogram
system.membus.snoop_fanout::overflows               0      0.00%    100.00% # Request fanout histogram
system.membus.snoop_fanout::min_value               0                       # Request fanout histogram
system.membus.snoop_fanout::max_value               0                       # Request fanout histogram
system.membus.snoop_fanout::total              808089                       # Request fanout histogram
system.membus.reqLayer2.occupancy          3794427500                       # Layer occupancy (ticks)
system.membus.reqLayer2.utilization               1.3                       # Layer utilization (%)
system.membus.respLayer1.occupancy         4380643750                       # Layer occupancy (ticks)
system.membus.respLayer1.utilization              1.5                       # Layer utilization (%)
system.membus.power_state.pwrStateResidencyTicks::UNDEFINED 1431109240000                       # Cumulative time (in ticks) in various power states
system.switch_cpus_1.dtb.walker.power_state.pwrStateResidencyTicks::UNDEFINED 1431109240000                       # Cumulative time (in ticks) in various power states
system.switch_cpus_1.itb.walker.power_state.pwrStateResidencyTicks::UNDEFINED 1431109240000                       # Cumulative time (in ticks) in various power states
system.switch_cpus_1.power_state.pwrStateResidencyTicks::OFF 1431109240000                       # Cumulative time (in ticks) in various power states
system.switch_cpus.dtb.walker.power_state.pwrStateResidencyTicks::UNDEFINED 1431109240000                       # Cumulative time (in ticks) in various power states
system.switch_cpus.itb.walker.power_state.pwrStateResidencyTicks::UNDEFINED 1431109240000                       # Cumulative time (in ticks) in various power states
system.switch_cpus.power_state.numTransitions            1                       # Number of power state transitions
system.switch_cpus.power_state.pwrStateResidencyTicks::OFF 1431109240000                       # Cumulative time (in ticks) in various power states
system.tol2bus.trans_dist::ReadResp           4633950                       # Transaction distribution
system.tol2bus.trans_dist::WritebackDirty      1916908                       # Transaction distribution
system.tol2bus.trans_dist::WritebackClean          641                       # Transaction distribution
system.tol2bus.trans_dist::CleanEvict         4757991                       # Transaction distribution
system.tol2bus.trans_dist::UpgradeReq          200953                       # Transaction distribution
system.tol2bus.trans_dist::UpgradeResp         200953                       # Transaction distribution
system.tol2bus.trans_dist::ReadExReq           934308                       # Transaction distribution
system.tol2bus.trans_dist::ReadExResp          934308                       # Transaction distribution
system.tol2bus.trans_dist::ReadCleanReq       4633951                       # Transaction distribution
system.tol2bus.pkt_count_system.cpu.icache.mem_side::system.l2.cpu_side         1924                       # Packet count per connected master and slave (bytes)
system.tol2bus.pkt_count_system.cpu.dcache.mem_side::system.l2.cpu_side     17104757                       # Packet count per connected master and slave (bytes)
system.tol2bus.pkt_count::total              17106681                       # Packet count per connected master and slave (bytes)
system.tol2bus.pkt_size_system.cpu.icache.mem_side::system.l2.cpu_side        82048                       # Cumulative packet size per connected master and slave (bytes)
system.tol2bus.pkt_size_system.cpu.dcache.mem_side::system.l2.cpu_side    428957056                       # Cumulative packet size per connected master and slave (bytes)
system.tol2bus.pkt_size::total              429039104                       # Cumulative packet size per connected master and slave (bytes)
system.tol2bus.snoops                         1107282                       # Total snoops (count)
system.tol2bus.snoopTraffic                  50052544                       # Total snoop traffic (bytes)
system.tol2bus.snoop_fanout::samples          6876494                       # Request fanout histogram
system.tol2bus.snoop_fanout::mean            0.009445                       # Request fanout histogram
system.tol2bus.snoop_fanout::stdev           0.096727                       # Request fanout histogram
system.tol2bus.snoop_fanout::underflows             0      0.00%      0.00% # Request fanout histogram
system.tol2bus.snoop_fanout::0                6811543     99.06%     99.06% # Request fanout histogram
system.tol2bus.snoop_fanout::1                  64951      0.94%    100.00% # Request fanout histogram
system.tol2bus.snoop_fanout::2                      0      0.00%    100.00% # Request fanout histogram
system.tol2bus.snoop_fanout::3                      0      0.00%    100.00% # Request fanout histogram
system.tol2bus.snoop_fanout::4                      0      0.00%    100.00% # Request fanout histogram
system.tol2bus.snoop_fanout::overflows              0      0.00%    100.00% # Request fanout histogram
system.tol2bus.snoop_fanout::min_value              0                       # Request fanout histogram
system.tol2bus.snoop_fanout::max_value              1                       # Request fanout histogram
system.tol2bus.snoop_fanout::total            6876494                       # Request fanout histogram
system.tol2bus.reqLayer0.occupancy         6804213000                       # Layer occupancy (ticks)
system.tol2bus.reqLayer0.utilization              2.3                       # Layer utilization (%)
system.tol2bus.respLayer1.occupancy        8451902499                       # Layer occupancy (ticks)
system.tol2bus.respLayer1.utilization             2.9                       # Layer utilization (%)
system.tol2bus.respLayer0.occupancy            961500                       # Layer occupancy (ticks)
system.tol2bus.respLayer0.utilization             0.0                       # Layer utilization (%)
system.tol2bus.power_state.pwrStateResidencyTicks::UNDEFINED 1431109240000                       # Cumulative time (in ticks) in various power states
system.voltage_domain.voltage                       1                       # Voltage in Volts
system.clk_domain.clock                          1000                       # Clock period in ticks
system.l2.demand_hits::.switch_cpus_1.inst           58                       # number of demand (read+write) hits
system.l2.demand_hits::.switch_cpus_1.data       651921                       # number of demand (read+write) hits
system.l2.demand_hits::total                   651979                       # number of demand (read+write) hits
system.l2.overall_hits::.switch_cpus_1.inst           58                       # number of overall hits
system.l2.overall_hits::.switch_cpus_1.data       651921                       # number of overall hits
system.l2.overall_hits::total                  651979                       # number of overall hits
system.l2.demand_misses::.switch_cpus_1.inst          584                       # number of demand (read+write) misses
system.l2.demand_misses::.switch_cpus_1.data      4915696                       # number of demand (read+write) misses
system.l2.demand_misses::total                4916280                       # number of demand (read+write) misses
system.l2.overall_misses::.switch_cpus_1.inst          584                       # number of overall misses
system.l2.overall_misses::.switch_cpus_1.data      4915696                       # number of overall misses
system.l2.overall_misses::total               4916280                       # number of overall misses
system.l2.demand_miss_latency::.switch_cpus_1.inst     58721500                       # number of demand (read+write) miss cycles
system.l2.demand_miss_latency::.switch_cpus_1.data 200416287500                       # number of demand (read+write) miss cycles
system.l2.demand_miss_latency::total     200475009000                       # number of demand (read+write) miss cycles
system.l2.overall_miss_latency::.switch_cpus_1.inst     58721500                       # number of overall miss cycles
system.l2.overall_miss_latency::.switch_cpus_1.data 200416287500                       # number of overall miss cycles
system.l2.overall_miss_latency::total    200475009000                       # number of overall miss cycles
system.l2.demand_accesses::.switch_cpus_1.inst          642                       # number of demand (read+write) accesses
system.l2.demand_accesses::.switch_cpus_1.data      5567617                       # number of demand (read+write) accesses
system.l2.demand_accesses::total              5568259                       # number of demand (read+write) accesses
system.l2.overall_accesses::.switch_cpus_1.inst          642                       # number of overall (read+write) accesses
system.l2.overall_accesses::.switch_cpus_1.data      5567617                       # number of overall (read+write) accesses
system.l2.overall_accesses::total             5568259                       # number of overall (read+write) accesses
[...]
system.cpu.dcache.overall_misses::total      24199066                       # number of overall misses
system.cpu.dcache.demand_miss_latency::.switch_cpus.data  22887014000                       # number of demand (read+write) miss cycles
system.cpu.dcache.demand_miss_latency::.switch_cpus_1.data 352875934982                       # number of demand (read+write) miss cycles
system.cpu.dcache.demand_miss_latency::total 375762948982                       # number of demand (read+write) miss cycles
system.cpu.dcache.overall_miss_latency::.switch_cpus.data  22887014000                       # number of overall miss cycles
system.cpu.dcache.overall_miss_latency::.switch_cpus_1.data 352875934982                       # number of overall miss cycles
system.cpu.dcache.overall_miss_latency::total 375762948982                       # number of overall miss cycles
system.cpu.dcache.demand_accesses::.cpu.data    433795334                       # number of demand (read+write) accesses
system.cpu.dcache.demand_accesses::.switch_cpus.data     21480199                       # number of demand (read+write) accesses
system.cpu.dcache.demand_accesses::.switch_cpus_1.data    168155296                       # number of demand (read+write) accesses
system.cpu.dcache.demand_accesses::total    623430829                       # number of demand (read+write) accesses
system.cpu.dcache.overall_accesses::.cpu.data    433795334                       # number of overall (read+write) accesses
system.cpu.dcache.overall_accesses::.switch_cpus.data     21480199                       # number of overall (read+write) accesses
system.cpu.dcache.overall_accesses::.switch_cpus_1.data    168155296                       # number of overall (read+write) accesses
system.cpu.dcache.overall_accesses::total    623430829                       # number of overall (read+write) accesses
system.cpu.dcache.demand_miss_rate::.cpu.data     0.034799                       # miss rate for demand accesses
system.cpu.dcache.demand_miss_rate::.switch_cpus.data     0.027682                       # miss rate for demand accesses
system.cpu.dcache.demand_miss_rate::.switch_cpus_1.data     0.050601                       # miss rate for demand accesses
system.cpu.dcache.demand_miss_rate::total     0.038816                       # miss rate for demand accesses
system.cpu.dcache.overall_miss_rate::.cpu.data     0.034799                       # miss rate for overall accesses
system.cpu.dcache.overall_miss_rate::.switch_cpus.data     0.027682                       # miss rate for overall accesses
system.cpu.dcache.overall_miss_rate::.switch_cpus_1.data     0.050601                       # miss rate for overall accesses
system.cpu.dcache.overall_miss_rate::total     0.038816                       # miss rate for overall accesses
system.cpu.dcache.demand_avg_miss_latency::.switch_cpus.data 38490.928477                       # average overall miss latency
system.cpu.dcache.demand_avg_miss_latency::.switch_cpus_1.data 41471.894909                       # average overall miss latency
system.cpu.dcache.demand_avg_miss_latency::total 15527.993890                       # average overall miss latency
system.cpu.dcache.overall_avg_miss_latency::.switch_cpus.data 38490.928477                       # average overall miss latency
system.cpu.dcache.overall_avg_miss_latency::.switch_cpus_1.data 41471.894909                       # average overall miss latency
system.cpu.dcache.overall_avg_miss_latency::total 15527.993890                       # average overall miss latency
system.cpu.dcache.blocked_cycles::no_mshrs     21339760                       # number of cycles access was blocked
system.cpu.dcache.blocked_cycles::no_targets          728                       # number of cycles access was blocked
system.cpu.dcache.blocked::no_mshrs           1121337                       # number of cycles access was blocked
system.cpu.dcache.blocked::no_targets               8                       # number of cycles access was blocked
system.cpu.dcache.avg_blocked_cycles::no_mshrs    19.030639                       # average number of cycles each access was blocked
system.cpu.dcache.avg_blocked_cycles::no_targets           91                       # average number of cycles each access was blocked
system.cpu.dcache.writebacks::.writebacks      5763146                       # number of writebacks
system.cpu.dcache.writebacks::total           5763146                       # number of writebacks
system.cpu.dcache.demand_mshr_hits::.switch_cpus_1.data      2740253                       # number of demand (read+write) MSHR hits
system.cpu.dcache.demand_mshr_hits::total      2740253                       # number of demand (read+write) MSHR hits
system.cpu.dcache.overall_mshr_hits::.switch_cpus_1.data      2740253                       # number of overall MSHR hits
system.cpu.dcache.overall_mshr_hits::total      2740253                       # number of overall MSHR hits
system.cpu.dcache.demand_mshr_misses::.switch_cpus.data       594608                       # number of demand (read+write) MSHR misses
system.cpu.dcache.demand_mshr_misses::.switch_cpus_1.data      5768544                       # number of demand (read+write) MSHR misses
system.cpu.dcache.demand_mshr_misses::total      6363152                       # number of demand (read+write) MSHR misses
system.cpu.dcache.overall_mshr_misses::.switch_cpus.data       594608                       # number of overall MSHR misses
system.cpu.dcache.overall_mshr_misses::.switch_cpus_1.data      5768544                       # number of overall MSHR misses
system.cpu.dcache.overall_mshr_misses::total      6363152                       # number of overall MSHR misses
system.cpu.dcache.demand_mshr_miss_latency::.switch_cpus.data  22292406000                       # number of demand (read+write) MSHR miss cycles
system.cpu.dcache.demand_mshr_miss_latency::.switch_cpus_1.data 219272389982                       # number of demand (read+write) MSHR miss cycles
system.cpu.dcache.demand_mshr_miss_latency::total 241564795982                       # number of demand (read+write) MSHR miss cycles
system.cpu.dcache.overall_mshr_miss_latency::.switch_cpus.data  22292406000                       # number of overall MSHR miss cycles
system.cpu.dcache.overall_mshr_miss_latency::.switch_cpus_1.data 219272389982                       # number of overall MSHR miss cycles
system.cpu.dcache.overall_mshr_miss_latency::total 241564795982                       # number of overall MSHR miss cycles
system.cpu.dcache.demand_mshr_miss_rate::.switch_cpus.data     0.027682                       # mshr miss rate for demand accesses
system.cpu.dcache.demand_mshr_miss_rate::.switch_cpus_1.data     0.034305                       # mshr miss rate for demand accesses
system.cpu.dcache.demand_mshr_miss_rate::total     0.010207                       # mshr miss rate for demand accesses
system.cpu.dcache.overall_mshr_miss_rate::.switch_cpus.data     0.027682                       # mshr miss rate for overall accesses
system.cpu.dcache.overall_mshr_miss_rate::.switch_cpus_1.data     0.034305                       # mshr miss rate for overall accesses
system.cpu.dcache.overall_mshr_miss_rate::total     0.010207                       # mshr miss rate for overall accesses
system.cpu.dcache.demand_avg_mshr_miss_latency::.switch_cpus.data 37490.928477                       # average overall mshr miss latency
system.cpu.dcache.demand_avg_mshr_miss_latency::.switch_cpus_1.data 38011.739181                       # average overall mshr miss latency
system.cpu.dcache.demand_avg_mshr_miss_latency::total 37963.071758                       # average overall mshr miss latency
system.cpu.dcache.overall_avg_mshr_miss_latency::.switch_cpus.data 37490.928477                       # average overall mshr miss latency
system.cpu.dcache.overall_avg_mshr_miss_latency::.switch_cpus_1.data 38011.739181                       # average overall mshr miss latency
system.cpu.dcache.overall_avg_mshr_miss_latency::total 37963.071758                       # average overall mshr miss latency
system.cpu.dcache.replacements               19761899                       # number of replacements
system.cpu.dcache.ReadReq_hits::.cpu.data    311145526                       # number of ReadReq hits
system.cpu.dcache.ReadReq_hits::.switch_cpus.data     17716162                       # number of ReadReq hits
system.cpu.dcache.ReadReq_hits::.switch_cpus_1.data    125985398                       # number of ReadReq hits
system.cpu.dcache.ReadReq_hits::total       454847086                       # number of ReadReq hits
system.cpu.dcache.ReadReq_misses::.cpu.data     10610433                       # number of ReadReq misses
system.cpu.dcache.ReadReq_misses::.switch_cpus.data       451504                       # number of ReadReq misses
system.cpu.dcache.ReadReq_misses::.switch_cpus_1.data      7373536                       # number of ReadReq misses
system.cpu.dcache.ReadReq_misses::total      18435473                       # number of ReadReq misses
system.cpu.dcache.ReadReq_miss_latency::.switch_cpus.data  15752796500                       # number of ReadReq miss cycles
system.cpu.dcache.ReadReq_miss_latency::.switch_cpus_1.data 299747326000                       # number of ReadReq miss cycles
system.cpu.dcache.ReadReq_miss_latency::total 315500122500                       # number of ReadReq miss cycles
system.cpu.dcache.ReadReq_accesses::.cpu.data    321755959                       # number of ReadReq accesses(hits+misses)
system.cpu.dcache.ReadReq_accesses::.switch_cpus.data     18167666                       # number of ReadReq accesses(hits+misses)
system.cpu.dcache.ReadReq_accesses::.switch_cpus_1.data    133358934                       # number of ReadReq accesses(hits+misses)
system.cpu.dcache.ReadReq_accesses::total    473282559                       # number of ReadReq accesses(hits+misses)
system.cpu.dcache.ReadReq_miss_rate::.cpu.data     0.032977                       # miss rate for ReadReq accesses
system.cpu.dcache.ReadReq_miss_rate::.switch_cpus.data     0.024852                       # miss rate for ReadReq accesses
system.cpu.dcache.ReadReq_miss_rate::.switch_cpus_1.data     0.055291                       # miss rate for ReadReq accesses
system.cpu.dcache.ReadReq_miss_rate::total     0.038952                       # miss rate for ReadReq accesses
system.cpu.dcache.ReadReq_avg_miss_latency::.switch_cpus.data 34889.605629                       # average ReadReq miss latency
system.cpu.dcache.ReadReq_avg_miss_latency::.switch_cpus_1.data 40651.774942                       # average ReadReq miss latency
system.cpu.dcache.ReadReq_avg_miss_latency::total 17113.752519                       # average ReadReq miss latency
system.cpu.dcache.ReadReq_mshr_hits::.switch_cpus_1.data      2740223                       # number of ReadReq MSHR hits
system.cpu.dcache.ReadReq_mshr_hits::total      2740223                       # number of ReadReq MSHR hits
system.cpu.dcache.ReadReq_mshr_misses::.switch_cpus.data       451504                       # number of ReadReq MSHR misses
system.cpu.dcache.ReadReq_mshr_misses::.switch_cpus_1.data      4633313                       # number of ReadReq MSHR misses
system.cpu.dcache.ReadReq_mshr_misses::total      5084817                       # number of ReadReq MSHR misses
system.cpu.dcache.ReadReq_mshr_miss_latency::.switch_cpus.data  15301292500                       # number of ReadReq MSHR miss cycles
system.cpu.dcache.ReadReq_mshr_miss_latency::.switch_cpus_1.data 167279092000                       # number of ReadReq MSHR miss cycles
system.cpu.dcache.ReadReq_mshr_miss_latency::total 182580384500                       # number of ReadReq MSHR miss cycles
system.cpu.dcache.ReadReq_mshr_miss_rate::.switch_cpus.data     0.024852                       # mshr miss rate for ReadReq accesses
system.cpu.dcache.ReadReq_mshr_miss_rate::.switch_cpus_1.data     0.034743                       # mshr miss rate for ReadReq accesses
system.cpu.dcache.ReadReq_mshr_miss_rate::total     0.010744                       # mshr miss rate for ReadReq accesses
system.cpu.dcache.ReadReq_avg_mshr_miss_latency::.switch_cpus.data 33889.605629                       # average ReadReq mshr miss latency
system.cpu.dcache.ReadReq_avg_mshr_miss_latency::.switch_cpus_1.data 36103.559591                       # average ReadReq mshr miss latency
system.cpu.dcache.ReadReq_avg_mshr_miss_latency::total 35906.972562                       # average ReadReq mshr miss latency
system.cpu.dcache.WriteReq_hits::.cpu.data    107554147                       # number of WriteReq hits
system.cpu.dcache.WriteReq_hits::.switch_cpus.data      3169429                       # number of WriteReq hits
system.cpu.dcache.WriteReq_hits::.switch_cpus_1.data     33661101                       # number of WriteReq hits
system.cpu.dcache.WriteReq_hits::total      144384677                       # number of WriteReq hits
system.cpu.dcache.WriteReq_misses::.cpu.data      4485228                       # number of WriteReq misses
system.cpu.dcache.WriteReq_misses::.switch_cpus.data       143104                       # number of WriteReq misses
system.cpu.dcache.WriteReq_misses::.switch_cpus_1.data      1135261                       # number of WriteReq misses
system.cpu.dcache.WriteReq_misses::total      5763593                       # number of WriteReq misses
system.cpu.dcache.WriteReq_miss_latency::.switch_cpus.data   7134217500                       # number of WriteReq miss cycles
system.cpu.dcache.WriteReq_miss_latency::.switch_cpus_1.data  53128608982                       # number of WriteReq miss cycles
system.cpu.dcache.WriteReq_miss_latency::total  60262826482                       # number of WriteReq miss cycles
system.cpu.dcache.WriteReq_accesses::.cpu.data    112039375                       # number of WriteReq accesses(hits+misses)
system.cpu.dcache.WriteReq_accesses::.switch_cpus.data      3312533                       # number of WriteReq accesses(hits+misses)
system.cpu.dcache.WriteReq_accesses::.switch_cpus_1.data     34796362                       # number of WriteReq accesses(hits+misses)
system.cpu.dcache.WriteReq_accesses::total    150148270                       # number of WriteReq accesses(hits+misses)
system.cpu.dcache.WriteReq_miss_rate::.cpu.data     0.040033                       # miss rate for WriteReq accesses
system.cpu.dcache.WriteReq_miss_rate::.switch_cpus.data     0.043201                       # miss rate for WriteReq accesses
system.cpu.dcache.WriteReq_miss_rate::.switch_cpus_1.data     0.032626                       # miss rate for WriteReq accesses
system.cpu.dcache.WriteReq_miss_rate::total     0.038386                       # miss rate for WriteReq accesses
system.cpu.dcache.WriteReq_avg_miss_latency::.switch_cpus.data 49853.375867                       # average WriteReq miss latency
system.cpu.dcache.WriteReq_avg_miss_latency::.switch_cpus_1.data 46798.585508                       # average WriteReq miss latency
system.cpu.dcache.WriteReq_avg_miss_latency::total 10455.774112                       # average WriteReq miss latency
system.cpu.dcache.WriteReq_mshr_hits::.switch_cpus_1.data           30                       # number of WriteReq MSHR hits
system.cpu.dcache.WriteReq_mshr_hits::total           30                       # number of WriteReq MSHR hits
system.cpu.dcache.WriteReq_mshr_misses::.switch_cpus.data       143104                       # number of WriteReq MSHR misses
system.cpu.dcache.WriteReq_mshr_misses::.switch_cpus_1.data      1135231                       # number of WriteReq MSHR misses
system.cpu.dcache.WriteReq_mshr_misses::total      1278335                       # number of WriteReq MSHR misses
system.cpu.dcache.WriteReq_mshr_miss_latency::.switch_cpus.data   6991113500                       # number of WriteReq MSHR miss cycles
system.cpu.dcache.WriteReq_mshr_miss_latency::.switch_cpus_1.data  51993297982                       # number of WriteReq MSHR miss cycles
system.cpu.dcache.WriteReq_mshr_miss_latency::total  58984411482                       # number of WriteReq MSHR miss cycles
system.cpu.dcache.WriteReq_mshr_miss_rate::.switch_cpus.data     0.043201                       # mshr miss rate for WriteReq accesses
system.cpu.dcache.WriteReq_mshr_miss_rate::.switch_cpus_1.data     0.032625                       # mshr miss rate for WriteReq accesses
system.cpu.dcache.WriteReq_mshr_miss_rate::total     0.008514                       # mshr miss rate for WriteReq accesses
system.cpu.dcache.WriteReq_avg_mshr_miss_latency::.switch_cpus.data 48853.375867                       # average WriteReq mshr miss latency
system.cpu.dcache.WriteReq_avg_mshr_miss_latency::.switch_cpus_1.data 45799.751753                       # average WriteReq mshr miss latency
system.cpu.dcache.WriteReq_avg_mshr_miss_latency::total 46141.591587                       # average WriteReq mshr miss latency
system.cpu.dcache.power_state.pwrStateResidencyTicks::UNDEFINED 1431109240000                       # Cumulative time (in ticks) in various power states
system.cpu.dcache.tags.tagsinuse           511.995892                       # Cycle average of tags in use
system.cpu.dcache.tags.total_refs           620868148                       # Total number of references to valid blocks.
system.cpu.dcache.tags.sampled_refs          19762411                       # Sample count of references to valid blocks.
system.cpu.dcache.tags.avg_refs             31.416620                       # Average number of references to valid blocks.
system.cpu.dcache.tags.warmup_cycle              1500                       # Cycle when the warmup percentage was hit.
system.cpu.dcache.tags.occ_blocks::.cpu.data   367.195915                       # Average occupied blocks per requestor
system.cpu.dcache.tags.occ_blocks::.switch_cpus.data    39.727854                       # Average occupied blocks per requestor
system.cpu.dcache.tags.occ_blocks::.switch_cpus_1.data   105.072123                       # Average occupied blocks per requestor
system.cpu.dcache.tags.occ_percent::.cpu.data     0.717180                       # Average percentage of cache occupancy
system.cpu.dcache.tags.occ_percent::.switch_cpus.data     0.077593                       # Average percentage of cache occupancy
system.cpu.dcache.tags.occ_percent::.switch_cpus_1.data     0.205219                       # Average percentage of cache occupancy
system.cpu.dcache.tags.occ_percent::total     0.999992                       # Average percentage of cache occupancy
system.cpu.dcache.tags.occ_task_id_blocks::1024          512                       # Occupied blocks per task id
system.cpu.dcache.tags.age_task_id_blocks_1024::0          131                       # Occupied blocks per task id
system.cpu.dcache.tags.age_task_id_blocks_1024::1          381                       # Occupied blocks per task id
system.cpu.dcache.tags.occ_task_id_percent::1024            1                       # Percentage of cache occupancy per task id
system.cpu.dcache.tags.tag_accesses        2513485727                       # Number of tag accesses
system.cpu.dcache.tags.data_accesses       2513485727                       # Number of data accesses
system.cpu.dcache.tags.power_state.pwrStateResidencyTicks::UNDEFINED 1431109240000                       # Cumulative time (in ticks) in various power states
system.cpu.power_state.numTransitions               2                       # Number of power state transitions
system.cpu.power_state.pwrStateResidencyTicks::ON 1026110788500                       # Cumulative time (in ticks) in various power states
system.cpu.power_state.pwrStateResidencyTicks::OFF 404998451500                       # Cumulative time (in ticks) in various power states

---------- End Simulation Statistics   ----------
